data_CoBDP_template_super
_audit_creation_date              2015-10-09
_audit_creation_method            'Materials Studio'
_symmetry_space_group_name_H-M    'P1'
_symmetry_Int_Tables_number       1
_symmetry_cell_setting            triclinic
loop_
_symmetry_equiv_pos_as_xyz
  x,y,z
_cell_length_a                    44.5182
_cell_length_b                    61.4456
_cell_length_c                    27.9304
_cell_angle_alpha                 90.0000
_cell_angle_beta                  97.3670
_cell_angle_gamma                 90.0000
loop_
_atom_site_label
_atom_site_type_symbol
_atom_site_description
_atom_site_fract_x
_atom_site_fract_y
_atom_site_fract_z
_atom_site_charge
C1     C     C_2        0.19751   0.03773   0.08708     -0.1076       
C2     C     C_2        0.05249   0.08727   0.16293     -0.1076       
C3     C     C_2       0.19428   0.02604   0.16072     -0.1292       
C4     C     C_2       0.05572   0.09896   0.08929     -0.1292       
C5     C     C_2       0.17993   0.03789   0.12347      0.0449       
C6     C     C_2       0.07007   0.08711   0.12654      0.0449       
C7     C     C_R       0.14998   0.04915   0.12266      0.0434       
C8     C     C_R       0.10002   0.07585   0.12734      0.0434       
C9     C     C_R       0.11351   0.07489   0.08518     -0.1564       
C10    C      C_R      0.13649   0.05011   0.16482      -0.1564      
C11    C      C_R      0.13849   0.06154   0.08284      -0.1852      
C12    C      C_R      0.11151   0.06346   0.16716      -0.1852      
N13    N      N_3      0.22272   0.02578   0.10184      -0.2672      
N14    N      N_3      0.02728   0.09922   0.14817      -0.2672      
N15    N      N_3      0.22072   0.01856   0.14735      -0.1139      
N16    N      N_3      0.02928   0.10644   0.10266      -0.1139      
H17    H      H_       0.19298   0.04473   0.05668       0.1382      
H18    H      H_       0.05702   0.08027   0.19332       0.1382      
H19    H      H_       0.18709   0.02345   0.19079       0.1093      
H20    H      H_       0.06291   0.10155   0.05921       0.1093      
H21    H      H_       0.10566   0.08336   0.05797       0.1478      
H22    H      H_       0.14434   0.04164   0.19203       0.1478      
H23    H      H_       0.14771   0.06089   0.05403       0.1419      
H24    H      H_       0.10229   0.06411   0.19598       0.1419      
C25    C      C_2       0.05113   0.16427   0.03632      -0.1076      
C26    C      C_2       0.19887   0.21073   0.21367      -0.1076      
C27    C      C_2      0.05437   0.15259   0.21268      -0.1292      
C28    C      C_2      0.19564   0.22241   0.03731      -0.1292      
C29    C      C_2      0.06787   0.16539   0.24894       0.0449      
C30    C      C_2      0.18213   0.20961   0.00105       0.0449      
C31    C      C_R      0.09625   0.17844   0.24790       0.0434      
C32    C      C_R      0.15375   0.19656   0.00210       0.0434      
C33    C      C_R      0.13711   0.19919   0.04054      -0.1564      
C34    C      C_R      0.11290   0.17581   0.20946      -0.1564      
C35    C      C_R      0.10835   0.19013   0.03844      -0.1852      
C36    C      C_R      0.14165   0.18487   0.21156      -0.1852      
N37    N      N_3      0.02728   0.15078   0.02316      -0.2672      
N38    N      N_3      0.22272   0.22422   0.22683      -0.2672      
N39    N      N_3      0.02928   0.14356   0.22765      -0.1139      
N40    N      N_3      0.22072   0.23144   0.02235      -0.1139      
H41    H      H_       0.05536   0.17162   0.06635       0.1382      
H42    H      H_       0.19464   0.20338   0.18364       0.1382      
H43    H      H_       0.06125   0.15035   0.18224       0.1093      
H44    H      H_       0.18875   0.22465   0.06775       0.1093      
H45    H      H_       0.14538   0.20718   0.06825       0.1478      
H46    H      H_       0.10462   0.16782   0.18175       0.1478      
H47    H      H_       0.09698   0.19193   0.06471       0.1419      
H48    H      H_       0.15302   0.18307   0.18529       0.1419      
C49    C      C_2       0.44751   0.16273   0.08708      -0.1076      
C50    C      C_2       0.30249   0.21228   0.16293      -0.1076      
C51    C      C_2      0.44428   0.15104   0.16072      -0.1292      
C52    C      C_2      0.30572   0.22396   0.08929      -0.1292      
C53    C      C_2      0.42993   0.16289   0.12347       0.0449      
C54    C      C_2      0.32007   0.21211   0.12654       0.0449      
C55    C      C_R      0.39998   0.17416   0.12266       0.0434      
C56    C      C_R      0.35002   0.20085   0.12734       0.0434      
C57    C      C_R      0.36351   0.19989   0.08518      -0.1564      
C58    C      C_R      0.38649   0.17511   0.16482      -0.1564      
C59    C      C_R      0.38849   0.18654   0.08284      -0.1852      
C60    C      C_R      0.36151   0.18846   0.16716      -0.1852      
N61    N      N_3      0.47272   0.15078   0.10184      -0.2672      
N62    N      N_3      0.27728   0.22422   0.14817      -0.2672      
N63    N      N_3      0.47072   0.14356   0.14735      -0.1139      
N64    N      N_3      0.27928   0.23144   0.10266      -0.1139      
H65    H      H_       0.44298   0.16973   0.05668       0.1382      
H66    H      H_       0.30702   0.20527   0.19332       0.1382      
H67    H      H_       0.43709   0.14845   0.19079       0.1093      
H68    H      H_       0.31291   0.22655   0.05921       0.1093      
H69    H      H_       0.35566   0.20836   0.05797       0.1478      
H70    H      H_       0.39435   0.16664   0.19203       0.1478      
H71    H      H_       0.39771   0.18589   0.05403       0.1419      
H72    H      H_       0.35229   0.18911   0.19598       0.1419      
C73    C      C_2       0.44751   0.08727   0.21208      -0.1076      
C74    C      C_2       0.30249   0.03773   0.03793      -0.1076      
C75    C      C_2      0.44428   0.09896   0.03572      -0.1292      
C76    C      C_2      0.30572   0.02604   0.21429      -0.1292      
C77    C      C_2      0.42993   0.08711   0.24847       0.0449      
C78    C      C_2      0.32007   0.03789   0.00154       0.0449      
C79    C      C_R      0.39998   0.07585   0.24766       0.0434      
C80    C      C_R      0.35002   0.04915   0.00234       0.0434      
C81    C      C_R      0.36351   0.05011   0.21018      -0.1564      
C82    C      C_R      0.38649   0.07489   0.03982      -0.1564      
C83    C      C_R      0.38849   0.06346   0.20784      -0.1852      
C84    C      C_R      0.36151   0.06154   0.04216      -0.1852      
N85    N      N_3      0.47272   0.09922   0.22684      -0.2672      
N86    N      N_3      0.27728   0.02578   0.02317      -0.2672      
N87    N      N_3      0.47072   0.10644   0.02235      -0.1139      
N88    N      N_3      0.27928   0.01856   0.22765      -0.1139      
H89    H      H_       0.44298   0.08027   0.18168       0.1382      
H90    H      H_       0.30702   0.04473   0.06832       0.1382      
H91    H      H_       0.43709   0.10155   0.06579       0.1093      
H92    H      H_       0.31291   0.02345   0.18421       0.1093      
H93    H      H_       0.35566   0.04164   0.18297       0.1478      
H94    H      H_       0.39435   0.08336   0.06703       0.1478      
H95    H      H_       0.39771   0.06411   0.17903       0.1419      
H96    H      H_       0.35229   0.06089   0.07098       0.1419      
Co97   Co    Zn3+2     0.00000   0.12024   0.18750        0.668      
Co98   Co    Zn3+2     0.00000   0.12976   0.06250        0.668      
Co99   Co    Zn3+2     0.25000   0.24524   0.18750        0.668      
Co100  Co     Zn3+2    0.25000   0.00476   0.06250         0.668     
C101   C       C_2      0.19751   0.03773   0.33708       -0.1076     
C102   C       C_2      0.05249   0.08727   0.41293       -0.1076     
C103   C       C_2     0.19428   0.02604   0.41072       -0.1292     
C104   C       C_2     0.05572   0.09896   0.33929       -0.1292     
C105   C       C_2     0.17993   0.03789   0.37347        0.0449     
C106   C       C_2     0.07007   0.08711   0.37654        0.0449     
C107   C       C_R     0.14998   0.04915   0.37266        0.0434     
C108   C       C_R     0.10002   0.07585   0.37734        0.0434     
C109   C       C_R     0.11351   0.07489   0.33518       -0.1564     
C110   C       C_R     0.13649   0.05011   0.41482       -0.1564     
C111   C       C_R     0.13849   0.06154   0.33284       -0.1852     
C112   C       C_R     0.11151   0.06346   0.41716       -0.1852     
N113   N       N_3     0.22272   0.02578   0.35184       -0.2672     
N114   N       N_3     0.02728   0.09922   0.39817       -0.2672     
N115   N       N_3     0.22072   0.01856   0.39735       -0.1139     
N116   N       N_3     0.02928   0.10644   0.35265       -0.1139     
H117   H       H_      0.19298   0.04473   0.30668        0.1382     
H118   H       H_      0.05702   0.08027   0.44332        0.1382     
H119   H       H_      0.18709   0.02345   0.44079        0.1093     
H120   H       H_      0.06291   0.10155   0.30921        0.1093     
H121   H       H_      0.10566   0.08336   0.30797        0.1478     
H122   H       H_      0.14434   0.04164   0.44203        0.1478     
H123   H       H_      0.14771   0.06089   0.30403        0.1419     
H124   H       H_      0.10229   0.06411   0.44598        0.1419     
C125   C       C_2      0.05113   0.16427   0.28632       -0.1076     
C126   C       C_2      0.19887   0.21073   0.46367       -0.1076     
C127   C       C_2     0.05437   0.15259   0.46268       -0.1292     
C128   C       C_2     0.19564   0.22241   0.28731       -0.1292     
C129   C       C_2     0.06787   0.16539   0.49894        0.0449     
C130   C       C_2     0.18213   0.20961   0.25105        0.0449     
C131   C       C_R     0.09625   0.17844   0.49790        0.0434     
C132   C       C_R     0.15375   0.19656   0.25210        0.0434     
C133   C       C_R     0.13711   0.19919   0.29054       -0.1564     
C134   C       C_R     0.11290   0.17581   0.45946       -0.1564     
C135   C       C_R     0.10835   0.19013   0.28844       -0.1852     
C136   C       C_R     0.14165   0.18487   0.46156       -0.1852     
N137   N       N_3     0.02728   0.15078   0.27316       -0.2672     
N138   N       N_3     0.22272   0.22422   0.47683       -0.2672     
N139   N       N_3     0.02928   0.14356   0.47765       -0.1139     
N140   N       N_3     0.22072   0.23144   0.27235       -0.1139     
H141   H       H_      0.05536   0.17162   0.31635        0.1382     
H142   H       H_      0.19464   0.20338   0.43364        0.1382     
H143   H       H_      0.06125   0.15035   0.43224        0.1093     
H144   H       H_      0.18875   0.22465   0.31775        0.1093     
H145   H       H_      0.14538   0.20718   0.31825        0.1478     
H146   H       H_      0.10462   0.16782   0.43175        0.1478     
H147   H       H_      0.09698   0.19193   0.31471        0.1419     
H148   H       H_      0.15302   0.18307   0.43529        0.1419     
C149   C       C_2      0.44751   0.16273   0.33708       -0.1076     
C150   C       C_2      0.30249   0.21228   0.41293       -0.1076     
C151   C       C_2     0.44428   0.15104   0.41072       -0.1292     
C152   C       C_2     0.30572   0.22396   0.33929       -0.1292     
C153   C       C_2     0.42993   0.16289   0.37347        0.0449     
C154   C       C_2     0.32007   0.21211   0.37654        0.0449     
C155   C       C_R     0.39998   0.17416   0.37266        0.0434     
C156   C       C_R     0.35002   0.20085   0.37734        0.0434     
C157   C       C_R     0.36351   0.19989   0.33518       -0.1564     
C158   C       C_R     0.38649   0.17511   0.41482       -0.1564     
C159   C       C_R     0.38849   0.18654   0.33284       -0.1852     
C160   C       C_R     0.36151   0.18846   0.41716       -0.1852     
N161   N       N_3     0.47272   0.15078   0.35184       -0.2672     
N162   N       N_3     0.27728   0.22422   0.39817       -0.2672     
N163   N       N_3     0.47072   0.14356   0.39735       -0.1139     
N164   N       N_3     0.27928   0.23144   0.35266       -0.1139     
H165   H       H_      0.44298   0.16973   0.30668        0.1382     
H166   H       H_      0.30702   0.20527   0.44332        0.1382     
H167   H       H_      0.43709   0.14845   0.44079        0.1093     
H168   H       H_      0.31291   0.22655   0.30921        0.1093     
H169   H       H_      0.35566   0.20836   0.30797        0.1478     
H170   H       H_      0.39435   0.16664   0.44203        0.1478     
H171   H       H_      0.39771   0.18589   0.30403        0.1419     
H172   H       H_      0.35229   0.18911   0.44598        0.1419     
C173   C       C_2      0.44751   0.08727   0.46208       -0.1076     
C174   C       C_2      0.30249   0.03773   0.28793       -0.1076     
C175   C       C_2     0.44428   0.09896   0.28572       -0.1292     
C176   C       C_2     0.30572   0.02604   0.46429       -0.1292     
C177   C       C_2     0.42993   0.08711   0.49847        0.0449     
C178   C       C_2     0.32007   0.03789   0.25154        0.0449     
C179   C       C_R     0.39998   0.07585   0.49766        0.0434     
C180   C       C_R     0.35002   0.04915   0.25234        0.0434     
C181   C       C_R     0.36351   0.05011   0.46018       -0.1564     
C182   C       C_R     0.38649   0.07489   0.28982       -0.1564     
C183   C       C_R     0.38849   0.06346   0.45784       -0.1852     
C184   C       C_R     0.36151   0.06154   0.29216       -0.1852     
N185   N       N_3     0.47272   0.09922   0.47684       -0.2672     
N186   N       N_3     0.27728   0.02578   0.27317       -0.2672     
N187   N       N_3     0.47072   0.10644   0.27235       -0.1139     
N188   N       N_3     0.27928   0.01856   0.47765       -0.1139     
H189   H       H_      0.44298   0.08027   0.43168        0.1382     
H190   H       H_      0.30702   0.04473   0.31832        0.1382     
H191   H       H_      0.43709   0.10155   0.31579        0.1093     
H192   H       H_      0.31291   0.02345   0.43421        0.1093     
H193   H       H_      0.35566   0.04164   0.43297        0.1478     
H194   H       H_      0.39435   0.08336   0.31703        0.1478     
H195   H       H_      0.39771   0.06411   0.42903        0.1419     
H196   H       H_      0.35229   0.06089   0.32098        0.1419     
Co197  Co     Zn3+2    0.00000   0.12024   0.43750         0.668     
Co198  Co     Zn3+2    0.00000   0.12976   0.31250         0.668     
Co199  Co     Zn3+2    0.25000   0.24524   0.43750         0.668     
Co200  Co     Zn3+2    0.25000   0.00476   0.31250         0.668     
C201   C       C_2      0.19751   0.03773   0.58708       -0.1076     
C202   C       C_2      0.05249   0.08727   0.66293       -0.1076     
C203   C       C_2     0.19428   0.02604   0.66072       -0.1292     
C204   C       C_2     0.05572   0.09896   0.58929       -0.1292     
C205   C       C_2     0.17993   0.03789   0.62347        0.0449     
C206   C       C_2     0.07007   0.08711   0.62654        0.0449     
C207   C       C_R     0.14998   0.04915   0.62266        0.0434     
C208   C       C_R     0.10002   0.07585   0.62734        0.0434     
C209   C       C_R     0.11351   0.07489   0.58518       -0.1564     
C210   C       C_R     0.13649   0.05011   0.66482       -0.1564     
C211   C       C_R     0.13849   0.06154   0.58284       -0.1852     
C212   C       C_R     0.11151   0.06346   0.66716       -0.1852     
N213   N       N_3     0.22272   0.02578   0.60184       -0.2672     
N214   N       N_3     0.02728   0.09922   0.64817       -0.2672     
N215   N       N_3     0.22072   0.01856   0.64735       -0.1139     
N216   N       N_3     0.02928   0.10644   0.60266       -0.1139     
H217   H       H_      0.19298   0.04473   0.55668        0.1382     
H218   H       H_      0.05702   0.08027   0.69332        0.1382     
H219   H       H_      0.18709   0.02345   0.69079        0.1093     
H220   H       H_      0.06291   0.10155   0.55921        0.1093     
H221   H       H_      0.10566   0.08336   0.55797        0.1478     
H222   H       H_      0.14434   0.04164   0.69203        0.1478     
H223   H       H_      0.14771   0.06089   0.55403        0.1419     
H224   H       H_      0.10229   0.06411   0.69598        0.1419     
C225   C       C_2      0.05113   0.16427   0.53632       -0.1076     
C226   C       C_2      0.19887   0.21073   0.71367       -0.1076     
C227   C       C_2     0.05437   0.15259   0.71268       -0.1292     
C228   C       C_2     0.19564   0.22241   0.53731       -0.1292     
C229   C       C_2     0.06787   0.16539   0.74894        0.0449     
C230   C       C_2     0.18213   0.20961   0.50105        0.0449     
C231   C       C_R     0.09625   0.17844   0.74790        0.0434     
C232   C       C_R     0.15375   0.19656   0.50210        0.0434     
C233   C       C_R     0.13711   0.19919   0.54054       -0.1564     
C234   C       C_R     0.11290   0.17581   0.70946       -0.1564     
C235   C       C_R     0.10835   0.19013   0.53844       -0.1852     
C236   C       C_R     0.14165   0.18487   0.71156       -0.1852     
N237   N       N_3     0.02728   0.15078   0.52316       -0.2672     
N238   N       N_3     0.22272   0.22422   0.72683       -0.2672     
N239   N       N_3     0.02928   0.14356   0.72765       -0.1139     
N240   N       N_3     0.22072   0.23144   0.52235       -0.1139     
H241   H       H_      0.05536   0.17162   0.56635        0.1382     
H242   H       H_      0.19464   0.20338   0.68364        0.1382     
H243   H       H_      0.06125   0.15035   0.68224        0.1093     
H244   H       H_      0.18875   0.22465   0.56775        0.1093     
H245   H       H_      0.14538   0.20718   0.56825        0.1478     
H246   H       H_      0.10462   0.16782   0.68175        0.1478     
H247   H       H_      0.09698   0.19193   0.56471        0.1419     
H248   H       H_      0.15302   0.18307   0.68529        0.1419     
C249   C       C_2      0.44751   0.16273   0.58708       -0.1076     
C250   C       C_2      0.30249   0.21228   0.66293       -0.1076     
C251   C       C_2     0.44428   0.15104   0.66072       -0.1292     
C252   C       C_2     0.30572   0.22396   0.58929       -0.1292     
C253   C       C_2     0.42993   0.16289   0.62347        0.0449     
C254   C       C_2     0.32007   0.21211   0.62654        0.0449     
C255   C       C_R     0.39998   0.17416   0.62266        0.0434     
C256   C       C_R     0.35002   0.20085   0.62734        0.0434     
C257   C       C_R     0.36351   0.19989   0.58518       -0.1564     
C258   C       C_R     0.38649   0.17511   0.66482       -0.1564     
C259   C       C_R     0.38849   0.18654   0.58284       -0.1852     
C260   C       C_R     0.36151   0.18846   0.66716       -0.1852     
N261   N       N_3     0.47272   0.15078   0.60184       -0.2672     
N262   N       N_3     0.27728   0.22422   0.64817       -0.2672     
N263   N       N_3     0.47072   0.14356   0.64735       -0.1139     
N264   N       N_3     0.27928   0.23144   0.60265       -0.1139     
H265   H       H_      0.44298   0.16973   0.55668        0.1382     
H266   H       H_      0.30702   0.20527   0.69332        0.1382     
H267   H       H_      0.43709   0.14845   0.69079        0.1093     
H268   H       H_      0.31291   0.22655   0.55921        0.1093     
H269   H       H_      0.35566   0.20836   0.55797        0.1478     
H270   H       H_      0.39435   0.16664   0.69203        0.1478     
H271   H       H_      0.39771   0.18589   0.55403        0.1419     
H272   H       H_      0.35229   0.18911   0.69598        0.1419     
C273   C       C_2      0.44751   0.08727   0.71208       -0.1076     
C274   C       C_2      0.30249   0.03773   0.53793       -0.1076     
C275   C       C_2     0.44428   0.09896   0.53572       -0.1292     
C276   C       C_2     0.30572   0.02604   0.71429       -0.1292     
C277   C       C_2     0.42993   0.08711   0.74847        0.0449     
C278   C       C_2     0.32007   0.03789   0.50154        0.0449     
C279   C       C_R     0.39998   0.07585   0.74766        0.0434     
C280   C       C_R     0.35002   0.04915   0.50234        0.0434     
C281   C       C_R     0.36351   0.05011   0.71018       -0.1564     
C282   C       C_R     0.38649   0.07489   0.53982       -0.1564     
C283   C       C_R     0.38849   0.06346   0.70784       -0.1852     
C284   C       C_R     0.36151   0.06154   0.54216       -0.1852     
N285   N       N_3     0.47272   0.09922   0.72684       -0.2672     
N286   N       N_3     0.27728   0.02578   0.52317       -0.2672     
N287   N       N_3     0.47072   0.10644   0.52235       -0.1139     
N288   N       N_3     0.27928   0.01856   0.72765       -0.1139     
H289   H       H_      0.44298   0.08027   0.68168        0.1382     
H290   H       H_      0.30702   0.04473   0.56832        0.1382     
H291   H       H_      0.43709   0.10155   0.56579        0.1093     
H292   H       H_      0.31291   0.02345   0.68421        0.1093     
H293   H       H_      0.35566   0.04164   0.68297        0.1478     
H294   H       H_      0.39435   0.08336   0.56703        0.1478     
H295   H       H_      0.39771   0.06411   0.67903        0.1419     
H296   H       H_      0.35229   0.06089   0.57098        0.1419     
Co297  Co     Zn3+2    0.00000   0.12024   0.68750         0.668     
Co298  Co     Zn3+2    0.00000   0.12976   0.56250         0.668     
Co299  Co     Zn3+2    0.25000   0.24524   0.68750         0.668     
Co300  Co     Zn3+2    0.25000   0.00476   0.56250         0.668     
C301   C       C_2      0.19751   0.03773   0.83708       -0.1076     
C302   C       C_2      0.05249   0.08727   0.91293       -0.1076     
C303   C       C_2     0.19428   0.02604   0.91072       -0.1292     
C304   C       C_2     0.05572   0.09896   0.83929       -0.1292     
C305   C       C_2     0.17993   0.03789   0.87347        0.0449     
C306   C       C_2     0.07007   0.08711   0.87654        0.0449     
C307   C       C_R     0.14998   0.04915   0.87266        0.0434     
C308   C       C_R     0.10002   0.07585   0.87734        0.0434     
C309   C       C_R     0.11351   0.07489   0.83518       -0.1564     
C310   C       C_R     0.13649   0.05011   0.91482       -0.1564     
C311   C       C_R     0.13849   0.06154   0.83284       -0.1852     
C312   C       C_R     0.11151   0.06346   0.91716       -0.1852     
N313   N       N_3     0.22272   0.02578   0.85184       -0.2672     
N314   N       N_3     0.02728   0.09922   0.89817       -0.2672     
N315   N       N_3     0.22072   0.01856   0.89735       -0.1139     
N316   N       N_3     0.02928   0.10644   0.85265       -0.1139     
H317   H       H_      0.19298   0.04473   0.80668        0.1382     
H318   H       H_      0.05702   0.08027   0.94332        0.1382     
H319   H       H_      0.18709   0.02345   0.94079        0.1093     
H320   H       H_      0.06291   0.10155   0.80921        0.1093     
H321   H       H_      0.10566   0.08336   0.80797        0.1478     
H322   H       H_      0.14434   0.04164   0.94203        0.1478     
H323   H       H_      0.14771   0.06089   0.80403        0.1419     
H324   H       H_      0.10229   0.06411   0.94598        0.1419     
C325   C       C_2      0.05113   0.16427   0.78632       -0.1076     
C326   C       C_2      0.19887   0.21073   0.96367       -0.1076     
C327   C       C_2     0.05437   0.15259   0.96268       -0.1292     
C328   C       C_2     0.19564   0.22241   0.78731       -0.1292     
C329   C       C_2     0.06787   0.16539   0.99894        0.0449     
C330   C       C_2     0.18213   0.20961   0.75105        0.0449     
C331   C       C_R     0.09625   0.17844   0.99790        0.0434     
C332   C       C_R     0.15375   0.19656   0.75210        0.0434     
C333   C       C_R     0.13711   0.19919   0.79054       -0.1564     
C334   C       C_R     0.11290   0.17581   0.95946       -0.1564     
C335   C       C_R     0.10835   0.19013   0.78844       -0.1852     
C336   C       C_R     0.14165   0.18487   0.96156       -0.1852     
N337   N       N_3     0.02728   0.15078   0.77316       -0.2672     
N338   N       N_3     0.22272   0.22422   0.97683       -0.2672     
N339   N       N_3     0.02928   0.14356   0.97765       -0.1139     
N340   N       N_3     0.22072   0.23144   0.77234       -0.1139     
H341   H       H_      0.05536   0.17162   0.81635        0.1382     
H342   H       H_      0.19464   0.20338   0.93364        0.1382     
H343   H       H_      0.06125   0.15035   0.93224        0.1093     
H344   H       H_      0.18875   0.22465   0.81775        0.1093     
H345   H       H_      0.14538   0.20718   0.81825        0.1478     
H346   H       H_      0.10462   0.16782   0.93175        0.1478     
H347   H       H_      0.09698   0.19193   0.81471        0.1419     
H348   H       H_      0.15302   0.18307   0.93529        0.1419     
C349   C       C_2      0.44751   0.16273   0.83708       -0.1076     
C350   C       C_2      0.30249   0.21228   0.91293       -0.1076     
C351   C       C_2     0.44428   0.15104   0.91072       -0.1292     
C352   C       C_2     0.30572   0.22396   0.83929       -0.1292     
C353   C       C_2     0.42993   0.16289   0.87347        0.0449     
C354   C       C_2     0.32007   0.21211   0.87654        0.0449     
C355   C       C_R     0.39998   0.17416   0.87266        0.0434     
C356   C       C_R     0.35002   0.20085   0.87734        0.0434     
C357   C       C_R     0.36351   0.19989   0.83518       -0.1564     
C358   C       C_R     0.38649   0.17511   0.91482       -0.1564     
C359   C       C_R     0.38849   0.18654   0.83284       -0.1852     
C360   C       C_R     0.36151   0.18846   0.91716       -0.1852     
N361   N       N_3     0.47272   0.15078   0.85184       -0.2672     
N362   N       N_3     0.27728   0.22422   0.89817       -0.2672     
N363   N       N_3     0.47072   0.14356   0.89735       -0.1139     
N364   N       N_3     0.27928   0.23144   0.85265       -0.1139     
H365   H       H_      0.44298   0.16973   0.80668        0.1382     
H366   H       H_      0.30702   0.20527   0.94332        0.1382     
H367   H       H_      0.43709   0.14845   0.94079        0.1093     
H368   H       H_      0.31291   0.22655   0.80921        0.1093     
H369   H       H_      0.35566   0.20836   0.80797        0.1478     
H370   H       H_      0.39435   0.16664   0.94203        0.1478     
H371   H       H_      0.39771   0.18589   0.80403        0.1419     
H372   H       H_      0.35229   0.18911   0.94598        0.1419     
C373   C       C_2      0.44751   0.08727   0.96208       -0.1076     
C374   C       C_2      0.30249   0.03773   0.78793       -0.1076     
C375   C       C_2     0.44428   0.09896   0.78572       -0.1292     
C376   C       C_2     0.30572   0.02604   0.96429       -0.1292     
C377   C       C_2     0.42993   0.08711   0.99847        0.0449     
C378   C       C_2     0.32007   0.03789   0.75154        0.0449     
C379   C       C_R     0.39998   0.07585   0.99766        0.0434     
C380   C       C_R     0.35002   0.04915   0.75234        0.0434     
C381   C       C_R     0.36351   0.05011   0.96018       -0.1564     
C382   C       C_R     0.38649   0.07489   0.78982       -0.1564     
C383   C       C_R     0.38849   0.06346   0.95784       -0.1852     
C384   C       C_R     0.36151   0.06154   0.79216       -0.1852     
N385   N       N_3     0.47272   0.09922   0.97684       -0.2672     
N386   N       N_3     0.27728   0.02578   0.77317       -0.2672     
N387   N       N_3     0.47072   0.10644   0.77235       -0.1139     
N388   N       N_3     0.27928   0.01856   0.97765       -0.1139     
H389   H       H_      0.44298   0.08027   0.93168        0.1382     
H390   H       H_      0.30702   0.04473   0.81832        0.1382     
H391   H       H_      0.43709   0.10155   0.81579        0.1093     
H392   H       H_      0.31291   0.02345   0.93421        0.1093     
H393   H       H_      0.35566   0.04164   0.93297        0.1478     
H394   H       H_      0.39435   0.08336   0.81703        0.1478     
H395   H       H_      0.39771   0.06411   0.92903        0.1419     
H396   H       H_      0.35229   0.06089   0.82098        0.1419     
Co397  Co     Zn3+2    0.00000   0.12024   0.93750         0.668     
Co398  Co     Zn3+2    0.00000   0.12976   0.81250         0.668     
Co399  Co     Zn3+2    0.25000   0.24524   0.93750         0.668     
Co400  Co     Zn3+2    0.25000   0.00476   0.81250         0.668     
C401   C       C_2      0.19751   0.28773   0.08708       -0.1076     
C402   C       C_2      0.05249   0.33727   0.16293       -0.1076     
C403   C       C_2     0.19428   0.27604   0.16072       -0.1292     
C404   C       C_2     0.05572   0.34896   0.08929       -0.1292     
C405   C       C_2     0.17993   0.28789   0.12347        0.0449     
C406   C       C_2     0.07007   0.33711   0.12654        0.0449     
C407   C       C_R     0.14998   0.29916   0.12266        0.0434     
C408   C       C_R     0.10002   0.32585   0.12734        0.0434     
C409   C       C_R     0.11351   0.32489   0.08518       -0.1564     
C410   C       C_R     0.13649   0.30011   0.16482       -0.1564     
C411   C       C_R     0.13849   0.31154   0.08284       -0.1852     
C412   C       C_R     0.11151   0.31346   0.16716       -0.1852     
N413   N       N_3     0.22272   0.27578   0.10184       -0.2672     
N414   N       N_3     0.02728   0.34922   0.14817       -0.2672     
N415   N       N_3     0.22072   0.26856   0.14735       -0.1139     
N416   N       N_3     0.02928   0.35644   0.10266       -0.1139     
H417   H       H_      0.19298   0.29473   0.05668        0.1382     
H418   H       H_      0.05702   0.33027   0.19332        0.1382     
H419   H       H_      0.18709   0.27345   0.19079        0.1093     
H420   H       H_      0.06291   0.35155   0.05921        0.1093     
H421   H       H_      0.10566   0.33336   0.05797        0.1478     
H422   H       H_      0.14434   0.29164   0.19203        0.1478     
H423   H       H_      0.14771   0.31089   0.05403        0.1419     
H424   H       H_      0.10229   0.31411   0.19598        0.1419     
C425   C       C_2      0.05113   0.41427   0.03632       -0.1076     
C426   C       C_2      0.19887   0.46073   0.21367       -0.1076     
C427   C       C_2     0.05437   0.40259   0.21268       -0.1292     
C428   C       C_2     0.19564   0.47241   0.03731       -0.1292     
C429   C       C_2     0.06787   0.41539   0.24894        0.0449     
C430   C       C_2     0.18213   0.45961   0.00105        0.0449     
C431   C       C_R     0.09625   0.42844   0.24790        0.0434     
C432   C       C_R     0.15375   0.44656   0.00210        0.0434     
C433   C       C_R     0.13711   0.44919   0.04054       -0.1564     
C434   C       C_R     0.11290   0.42581   0.20946       -0.1564     
C435   C       C_R     0.10835   0.44013   0.03844       -0.1852     
C436   C       C_R     0.14165   0.43487   0.21156       -0.1852     
N437   N       N_3     0.02728   0.40078   0.02316       -0.2672     
N438   N       N_3     0.22272   0.47422   0.22683       -0.2672     
N439   N       N_3     0.02928   0.39356   0.22765       -0.1139     
N440   N       N_3     0.22072   0.48144   0.02235       -0.1139     
H441   H       H_      0.05536   0.42162   0.06635        0.1382     
H442   H       H_      0.19464   0.45338   0.18364        0.1382     
H443   H       H_      0.06125   0.40035   0.18224        0.1093     
H444   H       H_      0.18875   0.47465   0.06775        0.1093     
H445   H       H_      0.14538   0.45718   0.06825        0.1478     
H446   H       H_      0.10462   0.41782   0.18175        0.1478     
H447   H       H_      0.09698   0.44193   0.06471        0.1419     
H448   H       H_      0.15302   0.43307   0.18529        0.1419     
C449   C       C_2      0.44751   0.41273   0.08708       -0.1076     
C450   C       C_2      0.30249   0.46227   0.16293       -0.1076     
C451   C       C_2     0.44428   0.40104   0.16072       -0.1292     
C452   C       C_2     0.30572   0.47396   0.08929       -0.1292     
C453   C       C_2     0.42993   0.41289   0.12347        0.0449     
C454   C       C_2     0.32007   0.46211   0.12654        0.0449     
C455   C       C_R     0.39998   0.42416   0.12266        0.0434     
C456   C       C_R     0.35002   0.45085   0.12734        0.0434     
C457   C       C_R     0.36351   0.44989   0.08518       -0.1564     
C458   C       C_R     0.38649   0.42511   0.16482       -0.1564     
C459   C       C_R     0.38849   0.43654   0.08284       -0.1852     
C460   C       C_R     0.36151   0.43846   0.16716       -0.1852     
N461   N       N_3     0.47272   0.40078   0.10184       -0.2672     
N462   N       N_3     0.27728   0.47422   0.14817       -0.2672     
N463   N       N_3     0.47072   0.39356   0.14735       -0.1139     
N464   N       N_3     0.27928   0.48144   0.10266       -0.1139     
H465   H       H_      0.44298   0.41973   0.05668        0.1382     
H466   H       H_      0.30702   0.45527   0.19332        0.1382     
H467   H       H_      0.43709   0.39845   0.19079        0.1093     
H468   H       H_      0.31291   0.47655   0.05921        0.1093     
H469   H       H_      0.35566   0.45836   0.05797        0.1478     
H470   H       H_      0.39435   0.41664   0.19203        0.1478     
H471   H       H_      0.39771   0.43589   0.05403        0.1419     
H472   H       H_      0.35229   0.43911   0.19598        0.1419     
C473   C       C_2      0.44751   0.33727   0.21208       -0.1076     
C474   C       C_2      0.30249   0.28773   0.03793       -0.1076     
C475   C       C_2     0.44428   0.34896   0.03572       -0.1292     
C476   C       C_2     0.30572   0.27604   0.21429       -0.1292     
C477   C       C_2     0.42993   0.33711   0.24847        0.0449     
C478   C       C_2     0.32007   0.28789   0.00154        0.0449     
C479   C       C_R     0.39998   0.32585   0.24766        0.0434     
C480   C       C_R     0.35002   0.29915   0.00234        0.0434     
C481   C       C_R     0.36351   0.30011   0.21018       -0.1564     
C482   C       C_R     0.38649   0.32489   0.03982       -0.1564     
C483   C       C_R     0.38849   0.31346   0.20784       -0.1852     
C484   C       C_R     0.36151   0.31154   0.04216       -0.1852     
N485   N       N_3     0.47272   0.34922   0.22684       -0.2672     
N486   N       N_3     0.27728   0.27578   0.02317       -0.2672     
N487   N       N_3     0.47072   0.35644   0.02235       -0.1139     
N488   N       N_3     0.27928   0.26856   0.22765       -0.1139     
H489   H       H_      0.44298   0.33027   0.18168        0.1382     
H490   H       H_      0.30702   0.29473   0.06832        0.1382     
H491   H       H_      0.43709   0.35155   0.06579        0.1093     
H492   H       H_      0.31291   0.27345   0.18421        0.1093     
H493   H       H_      0.35566   0.29164   0.18297        0.1478     
H494   H       H_      0.39435   0.33336   0.06703        0.1478     
H495   H       H_      0.39771   0.31411   0.17903        0.1419     
H496   H       H_      0.35229   0.31089   0.07098        0.1419     
Co497  Co     Zn3+2    0.00000   0.37024   0.18750         0.668     
Co498  Co     Zn3+2    0.00000   0.37976   0.06250         0.668     
Co499  Co     Zn3+2    0.25000   0.49524   0.18750         0.668     
Co500  Co     Zn3+2    0.25000   0.25476   0.06250         0.668     
C501   C       C_2      0.19751   0.28773   0.33708       -0.1076     
C502   C       C_2      0.05249   0.33727   0.41293       -0.1076     
C503   C       C_2     0.19428   0.27604   0.41072       -0.1292     
C504   C       C_2     0.05572   0.34896   0.33929       -0.1292     
C505   C       C_2     0.17993   0.28789   0.37347        0.0449     
C506   C       C_2     0.07007   0.33711   0.37654        0.0449     
C507   C       C_R     0.14998   0.29916   0.37266        0.0434     
C508   C       C_R     0.10002   0.32585   0.37734        0.0434     
C509   C       C_R     0.11351   0.32489   0.33518       -0.1564     
C510   C       C_R     0.13649   0.30011   0.41482       -0.1564     
C511   C       C_R     0.13849   0.31154   0.33284       -0.1852     
C512   C       C_R     0.11151   0.31346   0.41716       -0.1852     
N513   N       N_3     0.22272   0.27578   0.35184       -0.2672     
N514   N       N_3     0.02728   0.34922   0.39817       -0.2672     
N515   N       N_3     0.22072   0.26856   0.39735       -0.1139     
N516   N       N_3     0.02928   0.35644   0.35265       -0.1139     
H517   H       H_      0.19298   0.29473   0.30668        0.1382     
H518   H       H_      0.05702   0.33027   0.44332        0.1382     
H519   H       H_      0.18709   0.27345   0.44079        0.1093     
H520   H       H_      0.06291   0.35155   0.30921        0.1093     
H521   H       H_      0.10566   0.33336   0.30797        0.1478     
H522   H       H_      0.14434   0.29164   0.44203        0.1478     
H523   H       H_      0.14771   0.31089   0.30403        0.1419     
H524   H       H_      0.10229   0.31411   0.44598        0.1419     
C525   C       C_2      0.05113   0.41427   0.28632       -0.1076     
C526   C       C_2      0.19887   0.46073   0.46367       -0.1076     
C527   C       C_2     0.05437   0.40259   0.46268       -0.1292     
C528   C       C_2     0.19564   0.47241   0.28731       -0.1292     
C529   C       C_2     0.06787   0.41539   0.49894        0.0449     
C530   C       C_2     0.18213   0.45961   0.25105        0.0449     
C531   C       C_R     0.09625   0.42844   0.49790        0.0434     
C532   C       C_R     0.15375   0.44656   0.25210        0.0434     
C533   C       C_R     0.13711   0.44919   0.29054       -0.1564     
C534   C       C_R     0.11290   0.42581   0.45946       -0.1564     
C535   C       C_R     0.10835   0.44013   0.28844       -0.1852     
C536   C       C_R     0.14165   0.43487   0.46156       -0.1852     
N537   N       N_3     0.02728   0.40078   0.27316       -0.2672     
N538   N       N_3     0.22272   0.47422   0.47683       -0.2672     
N539   N       N_3     0.02928   0.39356   0.47765       -0.1139     
N540   N       N_3     0.22072   0.48144   0.27235       -0.1139     
H541   H       H_      0.05536   0.42162   0.31635        0.1382     
H542   H       H_      0.19464   0.45338   0.43364        0.1382     
H543   H       H_      0.06125   0.40035   0.43224        0.1093     
H544   H       H_      0.18875   0.47465   0.31775        0.1093     
H545   H       H_      0.14538   0.45718   0.31825        0.1478     
H546   H       H_      0.10462   0.41782   0.43175        0.1478     
H547   H       H_      0.09698   0.44193   0.31471        0.1419     
H548   H       H_      0.15302   0.43307   0.43529        0.1419     
C549   C       C_2      0.44751   0.41273   0.33708       -0.1076     
C550   C       C_2      0.30249   0.46227   0.41293       -0.1076     
C551   C       C_2     0.44428   0.40104   0.41072       -0.1292     
C552   C       C_2     0.30572   0.47396   0.33929       -0.1292     
C553   C       C_2     0.42993   0.41289   0.37347        0.0449     
C554   C       C_2     0.32007   0.46211   0.37654        0.0449     
C555   C       C_R     0.39998   0.42416   0.37266        0.0434     
C556   C       C_R     0.35002   0.45085   0.37734        0.0434     
C557   C       C_R     0.36351   0.44989   0.33518       -0.1564     
C558   C       C_R     0.38649   0.42511   0.41482       -0.1564     
C559   C       C_R     0.38849   0.43654   0.33284       -0.1852     
C560   C       C_R     0.36151   0.43846   0.41716       -0.1852     
N561   N       N_3     0.47272   0.40078   0.35184       -0.2672     
N562   N       N_3     0.27728   0.47422   0.39817       -0.2672     
N563   N       N_3     0.47072   0.39356   0.39735       -0.1139     
N564   N       N_3     0.27928   0.48144   0.35266       -0.1139     
H565   H       H_      0.44298   0.41973   0.30668        0.1382     
H566   H       H_      0.30702   0.45527   0.44332        0.1382     
H567   H       H_      0.43709   0.39845   0.44079        0.1093     
H568   H       H_      0.31291   0.47655   0.30921        0.1093     
H569   H       H_      0.35566   0.45836   0.30797        0.1478     
H570   H       H_      0.39435   0.41664   0.44203        0.1478     
H571   H       H_      0.39771   0.43589   0.30403        0.1419     
H572   H       H_      0.35229   0.43911   0.44598        0.1419     
C573   C       C_2      0.44751   0.33727   0.46208       -0.1076     
C574   C       C_2      0.30249   0.28773   0.28793       -0.1076     
C575   C       C_2     0.44428   0.34896   0.28572       -0.1292     
C576   C       C_2     0.30572   0.27604   0.46429       -0.1292     
C577   C       C_2     0.42993   0.33711   0.49847        0.0449     
C578   C       C_2     0.32007   0.28789   0.25154        0.0449     
C579   C       C_R     0.39998   0.32585   0.49766        0.0434     
C580   C       C_R     0.35002   0.29915   0.25234        0.0434     
C581   C       C_R     0.36351   0.30011   0.46018       -0.1564     
C582   C       C_R     0.38649   0.32489   0.28982       -0.1564     
C583   C       C_R     0.38849   0.31346   0.45784       -0.1852     
C584   C       C_R     0.36151   0.31154   0.29216       -0.1852     
N585   N       N_3     0.47272   0.34922   0.47684       -0.2672     
N586   N       N_3     0.27728   0.27578   0.27317       -0.2672     
N587   N       N_3     0.47072   0.35644   0.27235       -0.1139     
N588   N       N_3     0.27928   0.26856   0.47765       -0.1139     
H589   H       H_      0.44298   0.33027   0.43168        0.1382     
H590   H       H_      0.30702   0.29473   0.31832        0.1382     
H591   H       H_      0.43709   0.35155   0.31579        0.1093     
H592   H       H_      0.31291   0.27345   0.43421        0.1093     
H593   H       H_      0.35566   0.29164   0.43297        0.1478     
H594   H       H_      0.39435   0.33336   0.31703        0.1478     
H595   H       H_      0.39771   0.31411   0.42903        0.1419     
H596   H       H_      0.35229   0.31089   0.32098        0.1419     
Co597  Co     Zn3+2    0.00000   0.37024   0.43750         0.668     
Co598  Co     Zn3+2    0.00000   0.37976   0.31250         0.668     
Co599  Co     Zn3+2    0.25000   0.49524   0.43750         0.668     
Co600  Co     Zn3+2    0.25000   0.25476   0.31250         0.668     
C601   C       C_2      0.19751   0.28773   0.58708       -0.1076     
C602   C       C_2      0.05249   0.33727   0.66293       -0.1076     
C603   C       C_2     0.19428   0.27604   0.66072       -0.1292     
C604   C       C_2     0.05572   0.34896   0.58929       -0.1292     
C605   C       C_2     0.17993   0.28789   0.62347        0.0449     
C606   C       C_2     0.07007   0.33711   0.62654        0.0449     
C607   C       C_R     0.14998   0.29916   0.62266        0.0434     
C608   C       C_R     0.10002   0.32585   0.62734        0.0434     
C609   C       C_R     0.11351   0.32489   0.58518       -0.1564     
C610   C       C_R     0.13649   0.30011   0.66482       -0.1564     
C611   C       C_R     0.13849   0.31154   0.58284       -0.1852     
C612   C       C_R     0.11151   0.31346   0.66716       -0.1852     
N613   N       N_3     0.22272   0.27578   0.60184       -0.2672     
N614   N       N_3     0.02728   0.34922   0.64817       -0.2672     
N615   N       N_3     0.22072   0.26856   0.64735       -0.1139     
N616   N       N_3     0.02928   0.35644   0.60266       -0.1139     
H617   H       H_      0.19298   0.29473   0.55668        0.1382     
H618   H       H_      0.05702   0.33027   0.69332        0.1382     
H619   H       H_      0.18709   0.27345   0.69079        0.1093     
H620   H       H_      0.06291   0.35155   0.55921        0.1093     
H621   H       H_      0.10566   0.33336   0.55797        0.1478     
H622   H       H_      0.14434   0.29164   0.69203        0.1478     
H623   H       H_      0.14771   0.31089   0.55403        0.1419     
H624   H       H_      0.10229   0.31411   0.69598        0.1419     
C625   C       C_2      0.05113   0.41427   0.53632       -0.1076     
C626   C       C_2      0.19887   0.46073   0.71367       -0.1076     
C627   C       C_2     0.05437   0.40259   0.71268       -0.1292     
C628   C       C_2     0.19564   0.47241   0.53731       -0.1292     
C629   C       C_2     0.06787   0.41539   0.74894        0.0449     
C630   C       C_2     0.18213   0.45961   0.50105        0.0449     
C631   C       C_R     0.09625   0.42844   0.74790        0.0434     
C632   C       C_R     0.15375   0.44656   0.50210        0.0434     
C633   C       C_R     0.13711   0.44919   0.54054       -0.1564     
C634   C       C_R     0.11290   0.42581   0.70946       -0.1564     
C635   C       C_R     0.10835   0.44013   0.53844       -0.1852     
C636   C       C_R     0.14165   0.43487   0.71156       -0.1852     
N637   N       N_3     0.02728   0.40078   0.52316       -0.2672     
N638   N       N_3     0.22272   0.47422   0.72683       -0.2672     
N639   N       N_3     0.02928   0.39356   0.72765       -0.1139     
N640   N       N_3     0.22072   0.48144   0.52235       -0.1139     
H641   H       H_      0.05536   0.42162   0.56635        0.1382     
H642   H       H_      0.19464   0.45338   0.68364        0.1382     
H643   H       H_      0.06125   0.40035   0.68224        0.1093     
H644   H       H_      0.18875   0.47465   0.56775        0.1093     
H645   H       H_      0.14538   0.45718   0.56825        0.1478     
H646   H       H_      0.10462   0.41782   0.68175        0.1478     
H647   H       H_      0.09698   0.44193   0.56471        0.1419     
H648   H       H_      0.15302   0.43307   0.68529        0.1419     
C649   C       C_2      0.44751   0.41273   0.58708       -0.1076     
C650   C       C_2      0.30249   0.46227   0.66293       -0.1076     
C651   C       C_2     0.44428   0.40104   0.66072       -0.1292     
C652   C       C_2     0.30572   0.47396   0.58929       -0.1292     
C653   C       C_2     0.42993   0.41289   0.62347        0.0449     
C654   C       C_2     0.32007   0.46211   0.62654        0.0449     
C655   C       C_R     0.39998   0.42416   0.62266        0.0434     
C656   C       C_R     0.35002   0.45085   0.62734        0.0434     
C657   C       C_R     0.36351   0.44989   0.58518       -0.1564     
C658   C       C_R     0.38649   0.42511   0.66482       -0.1564     
C659   C       C_R     0.38849   0.43654   0.58284       -0.1852     
C660   C       C_R     0.36151   0.43846   0.66716       -0.1852     
N661   N       N_3     0.47272   0.40078   0.60184       -0.2672     
N662   N       N_3     0.27728   0.47422   0.64817       -0.2672     
N663   N       N_3     0.47072   0.39356   0.64735       -0.1139     
N664   N       N_3     0.27928   0.48144   0.60265       -0.1139     
H665   H       H_      0.44298   0.41973   0.55668        0.1382     
H666   H       H_      0.30702   0.45527   0.69332        0.1382     
H667   H       H_      0.43709   0.39845   0.69079        0.1093     
H668   H       H_      0.31291   0.47655   0.55921        0.1093     
H669   H       H_      0.35566   0.45836   0.55797        0.1478     
H670   H       H_      0.39435   0.41664   0.69203        0.1478     
H671   H       H_      0.39771   0.43589   0.55403        0.1419     
H672   H       H_      0.35229   0.43911   0.69598        0.1419     
C673   C       C_2      0.44751   0.33727   0.71208       -0.1076     
C674   C       C_2      0.30249   0.28773   0.53793       -0.1076     
C675   C       C_2     0.44428   0.34896   0.53572       -0.1292     
C676   C       C_2     0.30572   0.27604   0.71429       -0.1292     
C677   C       C_2     0.42993   0.33711   0.74847        0.0449     
C678   C       C_2     0.32007   0.28789   0.50154        0.0449     
C679   C       C_R     0.39998   0.32585   0.74766        0.0434     
C680   C       C_R     0.35002   0.29915   0.50234        0.0434     
C681   C       C_R     0.36351   0.30011   0.71018       -0.1564     
C682   C       C_R     0.38649   0.32489   0.53982       -0.1564     
C683   C       C_R     0.38849   0.31346   0.70784       -0.1852     
C684   C       C_R     0.36151   0.31154   0.54216       -0.1852     
N685   N       N_3     0.47272   0.34922   0.72684       -0.2672     
N686   N       N_3     0.27728   0.27578   0.52317       -0.2672     
N687   N       N_3     0.47072   0.35644   0.52235       -0.1139     
N688   N       N_3     0.27928   0.26856   0.72765       -0.1139     
H689   H       H_      0.44298   0.33027   0.68168        0.1382     
H690   H       H_      0.30702   0.29473   0.56832        0.1382     
H691   H       H_      0.43709   0.35155   0.56579        0.1093     
H692   H       H_      0.31291   0.27345   0.68421        0.1093     
H693   H       H_      0.35566   0.29164   0.68297        0.1478     
H694   H       H_      0.39435   0.33336   0.56703        0.1478     
H695   H       H_      0.39771   0.31411   0.67903        0.1419     
H696   H       H_      0.35229   0.31089   0.57098        0.1419     
Co697  Co     Zn3+2    0.00000   0.37024   0.68750         0.668     
Co698  Co     Zn3+2    0.00000   0.37976   0.56250         0.668     
Co699  Co     Zn3+2    0.25000   0.49524   0.68750         0.668     
Co700  Co     Zn3+2    0.25000   0.25476   0.56250         0.668     
C701   C       C_2      0.19751   0.28773   0.83708       -0.1076     
C702   C       C_2      0.05249   0.33727   0.91293       -0.1076     
C703   C       C_2     0.19428   0.27604   0.91072       -0.1292     
C704   C       C_2     0.05572   0.34896   0.83929       -0.1292     
C705   C       C_2     0.17993   0.28789   0.87347        0.0449     
C706   C       C_2     0.07007   0.33711   0.87654        0.0449     
C707   C       C_R     0.14998   0.29916   0.87266        0.0434     
C708   C       C_R     0.10002   0.32585   0.87734        0.0434     
C709   C       C_R     0.11351   0.32489   0.83518       -0.1564     
C710   C       C_R     0.13649   0.30011   0.91482       -0.1564     
C711   C       C_R     0.13849   0.31154   0.83284       -0.1852     
C712   C       C_R     0.11151   0.31346   0.91716       -0.1852     
N713   N       N_3     0.22272   0.27578   0.85184       -0.2672     
N714   N       N_3     0.02728   0.34922   0.89817       -0.2672     
N715   N       N_3     0.22072   0.26856   0.89735       -0.1139     
N716   N       N_3     0.02928   0.35644   0.85265       -0.1139     
H717   H       H_      0.19298   0.29473   0.80668        0.1382     
H718   H       H_      0.05702   0.33027   0.94332        0.1382     
H719   H       H_      0.18709   0.27345   0.94079        0.1093     
H720   H       H_      0.06291   0.35155   0.80921        0.1093     
H721   H       H_      0.10566   0.33336   0.80797        0.1478     
H722   H       H_      0.14434   0.29164   0.94203        0.1478     
H723   H       H_      0.14771   0.31089   0.80403        0.1419     
H724   H       H_      0.10229   0.31411   0.94598        0.1419     
C725   C       C_2      0.05113   0.41427   0.78632       -0.1076     
C726   C       C_2      0.19887   0.46073   0.96367       -0.1076     
C727   C       C_2     0.05437   0.40259   0.96268       -0.1292     
C728   C       C_2     0.19564   0.47241   0.78731       -0.1292     
C729   C       C_2     0.06787   0.41539   0.99894        0.0449     
C730   C       C_2     0.18213   0.45961   0.75105        0.0449     
C731   C       C_R     0.09625   0.42844   0.99790        0.0434     
C732   C       C_R     0.15375   0.44656   0.75210        0.0434     
C733   C       C_R     0.13711   0.44919   0.79054       -0.1564     
C734   C       C_R     0.11290   0.42581   0.95946       -0.1564     
C735   C       C_R     0.10835   0.44013   0.78844       -0.1852     
C736   C       C_R     0.14165   0.43487   0.96156       -0.1852     
N737   N       N_3     0.02728   0.40078   0.77316       -0.2672     
N738   N       N_3     0.22272   0.47422   0.97683       -0.2672     
N739   N       N_3     0.02928   0.39356   0.97765       -0.1139     
N740   N       N_3     0.22072   0.48144   0.77234       -0.1139     
H741   H       H_      0.05536   0.42162   0.81635        0.1382     
H742   H       H_      0.19464   0.45338   0.93364        0.1382     
H743   H       H_      0.06125   0.40035   0.93224        0.1093     
H744   H       H_      0.18875   0.47465   0.81775        0.1093     
H745   H       H_      0.14538   0.45718   0.81825        0.1478     
H746   H       H_      0.10462   0.41782   0.93175        0.1478     
H747   H       H_      0.09698   0.44193   0.81471        0.1419     
H748   H       H_      0.15302   0.43307   0.93529        0.1419     
C749   C       C_2      0.44751   0.41273   0.83708       -0.1076     
C750   C       C_2      0.30249   0.46227   0.91293       -0.1076     
C751   C       C_2     0.44428   0.40104   0.91072       -0.1292     
C752   C       C_2     0.30572   0.47396   0.83929       -0.1292     
C753   C       C_2     0.42993   0.41289   0.87347        0.0449     
C754   C       C_2     0.32007   0.46211   0.87654        0.0449     
C755   C       C_R     0.39998   0.42416   0.87266        0.0434     
C756   C       C_R     0.35002   0.45085   0.87734        0.0434     
C757   C       C_R     0.36351   0.44989   0.83518       -0.1564     
C758   C       C_R     0.38649   0.42511   0.91482       -0.1564     
C759   C       C_R     0.38849   0.43654   0.83284       -0.1852     
C760   C       C_R     0.36151   0.43846   0.91716       -0.1852     
N761   N       N_3     0.47272   0.40078   0.85184       -0.2672     
N762   N       N_3     0.27728   0.47422   0.89817       -0.2672     
N763   N       N_3     0.47072   0.39356   0.89735       -0.1139     
N764   N       N_3     0.27928   0.48144   0.85265       -0.1139     
H765   H       H_      0.44298   0.41973   0.80668        0.1382     
H766   H       H_      0.30702   0.45527   0.94332        0.1382     
H767   H       H_      0.43709   0.39845   0.94079        0.1093     
H768   H       H_      0.31291   0.47655   0.80921        0.1093     
H769   H       H_      0.35566   0.45836   0.80797        0.1478     
H770   H       H_      0.39435   0.41664   0.94203        0.1478     
H771   H       H_      0.39771   0.43589   0.80403        0.1419     
H772   H       H_      0.35229   0.43911   0.94598        0.1419     
C773   C       C_2      0.44751   0.33727   0.96208       -0.1076     
C774   C       C_2      0.30249   0.28773   0.78793       -0.1076     
C775   C       C_2     0.44428   0.34896   0.78572       -0.1292     
C776   C       C_2     0.30572   0.27604   0.96429       -0.1292     
C777   C       C_2     0.42993   0.33711   0.99847        0.0449     
C778   C       C_2     0.32007   0.28789   0.75154        0.0449     
C779   C       C_R     0.39998   0.32585   0.99766        0.0434     
C780   C       C_R     0.35002   0.29915   0.75234        0.0434     
C781   C       C_R     0.36351   0.30011   0.96018       -0.1564     
C782   C       C_R     0.38649   0.32489   0.78982       -0.1564     
C783   C       C_R     0.38849   0.31346   0.95784       -0.1852     
C784   C       C_R     0.36151   0.31154   0.79216       -0.1852     
N785   N       N_3     0.47272   0.34922   0.97684       -0.2672     
N786   N       N_3     0.27728   0.27578   0.77317       -0.2672     
N787   N       N_3     0.47072   0.35644   0.77235       -0.1139     
N788   N       N_3     0.27928   0.26856   0.97765       -0.1139     
H789   H       H_      0.44298   0.33027   0.93168        0.1382     
H790   H       H_      0.30702   0.29473   0.81832        0.1382     
H791   H       H_      0.43709   0.35155   0.81579        0.1093     
H792   H       H_      0.31291   0.27345   0.93421        0.1093     
H793   H       H_      0.35566   0.29164   0.93297        0.1478     
H794   H       H_      0.39435   0.33336   0.81703        0.1478     
H795   H       H_      0.39771   0.31411   0.92903        0.1419     
H796   H       H_      0.35229   0.31089   0.82098        0.1419     
Co797  Co     Zn3+2    0.00000   0.37024   0.93750         0.668     
Co798  Co     Zn3+2    0.00000   0.37976   0.81250         0.668     
Co799  Co     Zn3+2    0.25000   0.49524   0.93750         0.668     
Co800  Co     Zn3+2    0.25000   0.25476   0.81250         0.668     
C801   C       C_2      0.19751   0.53773   0.08708       -0.1076     
C802   C       C_2      0.05249   0.58727   0.16293       -0.1076     
C803   C       C_2     0.19428   0.52604   0.16072       -0.1292     
C804   C       C_2     0.05572   0.59896   0.08929       -0.1292     
C805   C       C_2     0.17993   0.53789   0.12347        0.0449     
C806   C       C_2     0.07007   0.58711   0.12654        0.0449     
C807   C       C_R     0.14998   0.54916   0.12266        0.0434     
C808   C       C_R     0.10002   0.57585   0.12734        0.0434     
C809   C       C_R     0.11351   0.57489   0.08518       -0.1564     
C810   C       C_R     0.13649   0.55011   0.16482       -0.1564     
C811   C       C_R     0.13849   0.56154   0.08284       -0.1852     
C812   C       C_R     0.11151   0.56346   0.16716       -0.1852     
N813   N       N_3     0.22272   0.52578   0.10184       -0.2672     
N814   N       N_3     0.02728   0.59922   0.14817       -0.2672     
N815   N       N_3     0.22072   0.51856   0.14735       -0.1139     
N816   N       N_3     0.02928   0.60644   0.10266       -0.1139     
H817   H       H_      0.19298   0.54473   0.05668        0.1382     
H818   H       H_      0.05702   0.58027   0.19332        0.1382     
H819   H       H_      0.18709   0.52345   0.19079        0.1093     
H820   H       H_      0.06291   0.60155   0.05921        0.1093     
H821   H       H_      0.10566   0.58336   0.05797        0.1478     
H822   H       H_      0.14434   0.54164   0.19203        0.1478     
H823   H       H_      0.14771   0.56089   0.05403        0.1419     
H824   H       H_      0.10229   0.56411   0.19598        0.1419     
C825   C       C_2      0.05113   0.66427   0.03632       -0.1076     
C826   C       C_2      0.19887   0.71073   0.21367       -0.1076     
C827   C       C_2     0.05437   0.65259   0.21268       -0.1292     
C828   C       C_2     0.19564   0.72241   0.03731       -0.1292     
C829   C       C_2     0.06787   0.66539   0.24894        0.0449     
C830   C       C_2     0.18213   0.70961   0.00105        0.0449     
C831   C       C_R     0.09625   0.67844   0.24790        0.0434     
C832   C       C_R     0.15375   0.69656   0.00210        0.0434     
C833   C       C_R     0.13711   0.69919   0.04054       -0.1564     
C834   C       C_R     0.11290   0.67581   0.20946       -0.1564     
C835   C       C_R     0.10835   0.69013   0.03844       -0.1852     
C836   C       C_R     0.14165   0.68487   0.21156       -0.1852     
N837   N       N_3     0.02728   0.65078   0.02316       -0.2672     
N838   N       N_3     0.22272   0.72422   0.22683       -0.2672     
N839   N       N_3     0.02928   0.64356   0.22765       -0.1139     
N840   N       N_3     0.22072   0.73144   0.02235       -0.1139     
H841   H       H_      0.05536   0.67162   0.06635        0.1382     
H842   H       H_      0.19464   0.70338   0.18364        0.1382     
H843   H       H_      0.06125   0.65035   0.18224        0.1093     
H844   H       H_      0.18875   0.72465   0.06775        0.1093     
H845   H       H_      0.14538   0.70718   0.06825        0.1478     
H846   H       H_      0.10462   0.66782   0.18175        0.1478     
H847   H       H_      0.09698   0.69193   0.06471        0.1419     
H848   H       H_      0.15302   0.68307   0.18529        0.1419     
C849   C       C_2      0.44751   0.66273   0.08708       -0.1076     
C850   C       C_2      0.30249   0.71228   0.16293       -0.1076     
C851   C       C_2     0.44428   0.65104   0.16072       -0.1292     
C852   C       C_2     0.30572   0.72396   0.08929       -0.1292     
C853   C       C_2     0.42993   0.66289   0.12347        0.0449     
C854   C       C_2     0.32007   0.71211   0.12654        0.0449     
C855   C       C_R     0.39998   0.67416   0.12266        0.0434     
C856   C       C_R     0.35002   0.70085   0.12734        0.0434     
C857   C       C_R     0.36351   0.69989   0.08518       -0.1564     
C858   C       C_R     0.38649   0.67511   0.16482       -0.1564     
C859   C       C_R     0.38849   0.68654   0.08284       -0.1852     
C860   C       C_R     0.36151   0.68846   0.16716       -0.1852     
N861   N       N_3     0.47272   0.65078   0.10184       -0.2672     
N862   N       N_3     0.27728   0.72422   0.14817       -0.2672     
N863   N       N_3     0.47072   0.64356   0.14735       -0.1139     
N864   N       N_3     0.27928   0.73144   0.10266       -0.1139     
H865   H       H_      0.44298   0.66973   0.05668        0.1382     
H866   H       H_      0.30702   0.70527   0.19332        0.1382     
H867   H       H_      0.43709   0.64845   0.19079        0.1093     
H868   H       H_      0.31291   0.72655   0.05921        0.1093     
H869   H       H_      0.35566   0.70836   0.05797        0.1478     
H870   H       H_      0.39435   0.66664   0.19203        0.1478     
H871   H       H_      0.39771   0.68589   0.05403        0.1419     
H872   H       H_      0.35229   0.68911   0.19598        0.1419     
C873   C       C_2      0.44751   0.58727   0.21208       -0.1076     
C874   C       C_2      0.30249   0.53773   0.03793       -0.1076     
C875   C       C_2     0.44428   0.59896   0.03572       -0.1292     
C876   C       C_2     0.30572   0.52604   0.21429       -0.1292     
C877   C       C_2     0.42993   0.58711   0.24847        0.0449     
C878   C       C_2     0.32007   0.53789   0.00154        0.0449     
C879   C       C_R     0.39998   0.57585   0.24766        0.0434     
C880   C       C_R     0.35002   0.54915   0.00234        0.0434     
C881   C       C_R     0.36351   0.55011   0.21018       -0.1564     
C882   C       C_R     0.38649   0.57489   0.03982       -0.1564     
C883   C       C_R     0.38849   0.56346   0.20784       -0.1852     
C884   C       C_R     0.36151   0.56154   0.04216       -0.1852     
N885   N       N_3     0.47272   0.59922   0.22684       -0.2672     
N886   N       N_3     0.27728   0.52578   0.02317       -0.2672     
N887   N       N_3     0.47072   0.60644   0.02235       -0.1139     
N888   N       N_3     0.27928   0.51856   0.22765       -0.1139     
H889   H       H_      0.44298   0.58027   0.18168        0.1382     
H890   H       H_      0.30702   0.54473   0.06832        0.1382     
H891   H       H_      0.43709   0.60155   0.06579        0.1093     
H892   H       H_      0.31291   0.52345   0.18421        0.1093     
H893   H       H_      0.35566   0.54164   0.18297        0.1478     
H894   H       H_      0.39435   0.58336   0.06703        0.1478     
H895   H       H_      0.39771   0.56411   0.17903        0.1419     
H896   H       H_      0.35229   0.56089   0.07098        0.1419     
Co897  Co     Zn3+2    0.00000   0.62024   0.18750         0.668     
Co898  Co     Zn3+2    0.00000   0.62976   0.06250         0.668     
Co899  Co     Zn3+2    0.25000   0.74524   0.18750         0.668     
Co900  Co     Zn3+2    0.25000   0.50476   0.06250         0.668     
C901   C       C_2      0.19751   0.53773   0.33708       -0.1076     
C902   C       C_2      0.05249   0.58727   0.41293       -0.1076     
C903   C       C_2     0.19428   0.52604   0.41072       -0.1292     
C904   C       C_2     0.05572   0.59896   0.33929       -0.1292     
C905   C       C_2     0.17993   0.53789   0.37347        0.0449     
C906   C       C_2     0.07007   0.58711   0.37654        0.0449     
C907   C       C_R     0.14998   0.54916   0.37266        0.0434     
C908   C       C_R     0.10002   0.57585   0.37734        0.0434     
C909   C       C_R     0.11351   0.57489   0.33518       -0.1564     
C910   C       C_R     0.13649   0.55011   0.41482       -0.1564     
C911   C       C_R     0.13849   0.56154   0.33284       -0.1852     
C912   C       C_R     0.11151   0.56346   0.41716       -0.1852     
N913   N       N_3     0.22272   0.52578   0.35184       -0.2672     
N914   N       N_3     0.02728   0.59922   0.39817       -0.2672     
N915   N       N_3     0.22072   0.51856   0.39735       -0.1139     
N916   N       N_3     0.02928   0.60644   0.35265       -0.1139     
H917   H       H_      0.19298   0.54473   0.30668        0.1382     
H918   H       H_      0.05702   0.58027   0.44332        0.1382     
H919   H       H_      0.18709   0.52345   0.44079        0.1093     
H920   H       H_      0.06291   0.60155   0.30921        0.1093     
H921   H       H_      0.10566   0.58336   0.30797        0.1478     
H922   H       H_      0.14434   0.54164   0.44203        0.1478     
H923   H       H_      0.14771   0.56089   0.30403        0.1419     
H924   H       H_      0.10229   0.56411   0.44598        0.1419     
C925   C       C_2      0.05113   0.66427   0.28632       -0.1076     
C926   C       C_2      0.19887   0.71073   0.46367       -0.1076     
C927   C       C_2     0.05437   0.65259   0.46268       -0.1292     
C928   C       C_2     0.19564   0.72241   0.28731       -0.1292     
C929   C       C_2     0.06787   0.66539   0.49894        0.0449     
C930   C       C_2     0.18213   0.70961   0.25105        0.0449     
C931   C       C_R     0.09625   0.67844   0.49790        0.0434     
C932   C       C_R     0.15375   0.69656   0.25210        0.0434     
C933   C       C_R     0.13711   0.69919   0.29054       -0.1564     
C934   C       C_R     0.11290   0.67581   0.45946       -0.1564     
C935   C       C_R     0.10835   0.69013   0.28844       -0.1852     
C936   C       C_R     0.14165   0.68487   0.46156       -0.1852     
N937   N       N_3     0.02728   0.65078   0.27316       -0.2672     
N938   N       N_3     0.22272   0.72422   0.47683       -0.2672     
N939   N       N_3     0.02928   0.64356   0.47765       -0.1139     
N940   N       N_3     0.22072   0.73144   0.27235       -0.1139     
H941   H       H_      0.05536   0.67162   0.31635        0.1382     
H942   H       H_      0.19464   0.70338   0.43364        0.1382     
H943   H       H_      0.06125   0.65035   0.43224        0.1093     
H944   H       H_      0.18875   0.72465   0.31775        0.1093     
H945   H       H_      0.14538   0.70718   0.31825        0.1478     
H946   H       H_      0.10462   0.66782   0.43175        0.1478     
H947   H       H_      0.09698   0.69193   0.31471        0.1419     
H948   H       H_      0.15302   0.68307   0.43529        0.1419     
C949   C       C_2      0.44751   0.66273   0.33708       -0.1076     
C950   C       C_2      0.30249   0.71228   0.41293       -0.1076     
C951   C       C_2     0.44428   0.65104   0.41072       -0.1292     
C952   C       C_2     0.30572   0.72396   0.33929       -0.1292     
C953   C       C_2     0.42993   0.66289   0.37347        0.0449     
C954   C       C_2     0.32007   0.71211   0.37654        0.0449     
C955   C       C_R     0.39998   0.67416   0.37266        0.0434     
C956   C       C_R     0.35002   0.70085   0.37734        0.0434     
C957   C       C_R     0.36351   0.69989   0.33518       -0.1564     
C958   C       C_R     0.38649   0.67511   0.41482       -0.1564     
C959   C       C_R     0.38849   0.68654   0.33284       -0.1852     
C960   C       C_R     0.36151   0.68846   0.41716       -0.1852     
N961   N       N_3     0.47272   0.65078   0.35184       -0.2672     
N962   N       N_3     0.27728   0.72422   0.39817       -0.2672     
N963   N       N_3     0.47072   0.64356   0.39735       -0.1139     
N964   N       N_3     0.27928   0.73144   0.35266       -0.1139     
H965   H       H_      0.44298   0.66973   0.30668        0.1382     
H966   H       H_      0.30702   0.70527   0.44332        0.1382     
H967   H       H_      0.43709   0.64845   0.44079        0.1093     
H968   H       H_      0.31291   0.72655   0.30921        0.1093     
H969   H       H_      0.35566   0.70836   0.30797        0.1478     
H970   H       H_      0.39435   0.66664   0.44203        0.1478     
H971   H       H_      0.39771   0.68589   0.30403        0.1419     
H972   H       H_      0.35229   0.68911   0.44598        0.1419     
C973   C       C_2      0.44751   0.58727   0.46208       -0.1076     
C974   C       C_2      0.30249   0.53773   0.28793       -0.1076     
C975   C       C_2     0.44428   0.59896   0.28572       -0.1292     
C976   C       C_2     0.30572   0.52604   0.46429       -0.1292     
C977   C       C_2     0.42993   0.58711   0.49847        0.0449     
C978   C       C_2     0.32007   0.53789   0.25154        0.0449     
C979   C       C_R     0.39998   0.57585   0.49766        0.0434     
C980   C       C_R     0.35002   0.54915   0.25234        0.0434     
C981   C       C_R     0.36351   0.55011   0.46018       -0.1564     
C982   C       C_R     0.38649   0.57489   0.28982       -0.1564     
C983   C       C_R     0.38849   0.56346   0.45784       -0.1852     
C984   C       C_R     0.36151   0.56154   0.29216       -0.1852     
N985   N       N_3     0.47272   0.59922   0.47684       -0.2672     
N986   N       N_3     0.27728   0.52578   0.27317       -0.2672     
N987   N       N_3     0.47072   0.60644   0.27235       -0.1139     
N988   N       N_3     0.27928   0.51856   0.47765       -0.1139     
H989   H       H_      0.44298   0.58027   0.43168        0.1382     
H990   H       H_      0.30702   0.54473   0.31832        0.1382     
H991   H       H_      0.43709   0.60155   0.31579        0.1093     
H992   H       H_      0.31291   0.52345   0.43421        0.1093     
H993   H       H_      0.35566   0.54164   0.43297        0.1478     
H994   H       H_      0.39435   0.58336   0.31703        0.1478     
H995   H       H_      0.39771   0.56411   0.42903        0.1419     
H996   H       H_      0.35229   0.56089   0.32098        0.1419     
Co997  Co     Zn3+2    0.00000   0.62024   0.43750         0.668     
Co998  Co     Zn3+2    0.00000   0.62976   0.31250         0.668     
Co999  Co     Zn3+2    0.25000   0.74524   0.43750         0.668     
Co1000 Co      Zn3+2   0.25000   0.50476   0.31250          0.668    
C1001  C        C_2     0.19751   0.53773   0.58708        -0.1076    
C1002  C        C_2     0.05249   0.58727   0.66293        -0.1076    
C1003  C        C_2    0.19428   0.52604   0.66072        -0.1292    
C1004  C        C_2    0.05572   0.59896   0.58929        -0.1292    
C1005  C        C_2    0.17993   0.53789   0.62347         0.0449    
C1006  C        C_2    0.07007   0.58711   0.62654         0.0449    
C1007  C        C_R    0.14998   0.54916   0.62266         0.0434    
C1008  C        C_R    0.10002   0.57585   0.62734         0.0434    
C1009  C        C_R    0.11351   0.57489   0.58518        -0.1564    
C1010  C        C_R    0.13649   0.55011   0.66482        -0.1564    
C1011  C        C_R    0.13849   0.56154   0.58284        -0.1852    
C1012  C        C_R    0.11151   0.56346   0.66716        -0.1852    
N1013  N        N_3    0.22272   0.52578   0.60184        -0.2672    
N1014  N        N_3    0.02728   0.59922   0.64817        -0.2672    
N1015  N        N_3    0.22072   0.51856   0.64735        -0.1139    
N1016  N        N_3    0.02928   0.60644   0.60266        -0.1139    
H1017  H        H_     0.19298   0.54473   0.55668         0.1382    
H1018  H        H_     0.05702   0.58027   0.69332         0.1382    
H1019  H        H_     0.18709   0.52345   0.69079         0.1093    
H1020  H        H_     0.06291   0.60155   0.55921         0.1093    
H1021  H        H_     0.10566   0.58336   0.55797         0.1478    
H1022  H        H_     0.14434   0.54164   0.69203         0.1478    
H1023  H        H_     0.14771   0.56089   0.55403         0.1419    
H1024  H        H_     0.10229   0.56411   0.69598         0.1419    
C1025  C        C_2     0.05113   0.66427   0.53632        -0.1076    
C1026  C        C_2     0.19887   0.71073   0.71367        -0.1076    
C1027  C        C_2    0.05437   0.65259   0.71268        -0.1292    
C1028  C        C_2    0.19564   0.72241   0.53731        -0.1292    
C1029  C        C_2    0.06787   0.66539   0.74894         0.0449    
C1030  C        C_2    0.18213   0.70961   0.50105         0.0449    
C1031  C        C_R    0.09625   0.67844   0.74790         0.0434    
C1032  C        C_R    0.15375   0.69656   0.50210         0.0434    
C1033  C        C_R    0.13711   0.69919   0.54054        -0.1564    
C1034  C        C_R    0.11290   0.67581   0.70946        -0.1564    
C1035  C        C_R    0.10835   0.69013   0.53844        -0.1852    
C1036  C        C_R    0.14165   0.68487   0.71156        -0.1852    
N1037  N        N_3    0.02728   0.65078   0.52316        -0.2672    
N1038  N        N_3    0.22272   0.72422   0.72683        -0.2672    
N1039  N        N_3    0.02928   0.64356   0.72765        -0.1139    
N1040  N        N_3    0.22072   0.73144   0.52235        -0.1139    
H1041  H        H_     0.05536   0.67162   0.56635         0.1382    
H1042  H        H_     0.19464   0.70338   0.68364         0.1382    
H1043  H        H_     0.06125   0.65035   0.68224         0.1093    
H1044  H        H_     0.18875   0.72465   0.56775         0.1093    
H1045  H        H_     0.14538   0.70718   0.56825         0.1478    
H1046  H        H_     0.10462   0.66782   0.68175         0.1478    
H1047  H        H_     0.09698   0.69193   0.56471         0.1419    
H1048  H        H_     0.15302   0.68307   0.68529         0.1419    
C1049  C        C_2     0.44751   0.66273   0.58708        -0.1076    
C1050  C        C_2     0.30249   0.71228   0.66293        -0.1076    
C1051  C        C_2    0.44428   0.65104   0.66072        -0.1292    
C1052  C        C_2    0.30572   0.72396   0.58929        -0.1292    
C1053  C        C_2    0.42993   0.66289   0.62347         0.0449    
C1054  C        C_2    0.32007   0.71211   0.62654         0.0449    
C1055  C        C_R    0.39998   0.67416   0.62266         0.0434    
C1056  C        C_R    0.35002   0.70085   0.62734         0.0434    
C1057  C        C_R    0.36351   0.69989   0.58518        -0.1564    
C1058  C        C_R    0.38649   0.67511   0.66482        -0.1564    
C1059  C        C_R    0.38849   0.68654   0.58284        -0.1852    
C1060  C        C_R    0.36151   0.68846   0.66716        -0.1852    
N1061  N        N_3    0.47272   0.65078   0.60184        -0.2672    
N1062  N        N_3    0.27728   0.72422   0.64817        -0.2672    
N1063  N        N_3    0.47072   0.64356   0.64735        -0.1139    
N1064  N        N_3    0.27928   0.73144   0.60265        -0.1139    
H1065  H        H_     0.44298   0.66973   0.55668         0.1382    
H1066  H        H_     0.30702   0.70527   0.69332         0.1382    
H1067  H        H_     0.43709   0.64845   0.69079         0.1093    
H1068  H        H_     0.31291   0.72655   0.55921         0.1093    
H1069  H        H_     0.35566   0.70836   0.55797         0.1478    
H1070  H        H_     0.39435   0.66664   0.69203         0.1478    
H1071  H        H_     0.39771   0.68589   0.55403         0.1419    
H1072  H        H_     0.35229   0.68911   0.69598         0.1419    
C1073  C        C_2     0.44751   0.58727   0.71208        -0.1076    
C1074  C        C_2     0.30249   0.53773   0.53793        -0.1076    
C1075  C        C_2    0.44428   0.59896   0.53572        -0.1292    
C1076  C        C_2    0.30572   0.52604   0.71429        -0.1292    
C1077  C        C_2    0.42993   0.58711   0.74847         0.0449    
C1078  C        C_2    0.32007   0.53789   0.50154         0.0449    
C1079  C        C_R    0.39998   0.57585   0.74766         0.0434    
C1080  C        C_R    0.35002   0.54915   0.50234         0.0434    
C1081  C        C_R    0.36351   0.55011   0.71018        -0.1564    
C1082  C        C_R    0.38649   0.57489   0.53982        -0.1564    
C1083  C        C_R    0.38849   0.56346   0.70784        -0.1852    
C1084  C        C_R    0.36151   0.56154   0.54216        -0.1852    
N1085  N        N_3    0.47272   0.59922   0.72684        -0.2672    
N1086  N        N_3    0.27728   0.52578   0.52317        -0.2672    
N1087  N        N_3    0.47072   0.60644   0.52235        -0.1139    
N1088  N        N_3    0.27928   0.51856   0.72765        -0.1139    
H1089  H        H_     0.44298   0.58027   0.68168         0.1382    
H1090  H        H_     0.30702   0.54473   0.56832         0.1382    
H1091  H        H_     0.43709   0.60155   0.56579         0.1093    
H1092  H        H_     0.31291   0.52345   0.68421         0.1093    
H1093  H        H_     0.35566   0.54164   0.68297         0.1478    
H1094  H        H_     0.39435   0.58336   0.56703         0.1478    
H1095  H        H_     0.39771   0.56411   0.67903         0.1419    
H1096  H        H_     0.35229   0.56089   0.57098         0.1419    
Co1097 Co      Zn3+2   0.00000   0.62024   0.68750          0.668    
Co1098 Co      Zn3+2   0.00000   0.62976   0.56250          0.668    
Co1099 Co      Zn3+2   0.25000   0.74524   0.68750          0.668    
Co1100 Co      Zn3+2   0.25000   0.50476   0.56250          0.668    
C1101  C        C_2     0.19751   0.53773   0.83708        -0.1076    
C1102  C        C_2     0.05249   0.58727   0.91293        -0.1076    
C1103  C        C_2    0.19428   0.52604   0.91072        -0.1292    
C1104  C        C_2    0.05572   0.59896   0.83929        -0.1292    
C1105  C        C_2    0.17993   0.53789   0.87347         0.0449    
C1106  C        C_2    0.07007   0.58711   0.87654         0.0449    
C1107  C        C_R    0.14998   0.54916   0.87266         0.0434    
C1108  C        C_R    0.10002   0.57585   0.87734         0.0434    
C1109  C        C_R    0.11351   0.57489   0.83518        -0.1564    
C1110  C        C_R    0.13649   0.55011   0.91482        -0.1564    
C1111  C        C_R    0.13849   0.56154   0.83284        -0.1852    
C1112  C        C_R    0.11151   0.56346   0.91716        -0.1852    
N1113  N        N_3    0.22272   0.52578   0.85184        -0.2672    
N1114  N        N_3    0.02728   0.59922   0.89817        -0.2672    
N1115  N        N_3    0.22072   0.51856   0.89735        -0.1139    
N1116  N        N_3    0.02928   0.60644   0.85265        -0.1139    
H1117  H        H_     0.19298   0.54473   0.80668         0.1382    
H1118  H        H_     0.05702   0.58027   0.94332         0.1382    
H1119  H        H_     0.18709   0.52345   0.94079         0.1093    
H1120  H        H_     0.06291   0.60155   0.80921         0.1093    
H1121  H        H_     0.10566   0.58336   0.80797         0.1478    
H1122  H        H_     0.14434   0.54164   0.94203         0.1478    
H1123  H        H_     0.14771   0.56089   0.80403         0.1419    
H1124  H        H_     0.10229   0.56411   0.94598         0.1419    
C1125  C        C_2     0.05113   0.66427   0.78632        -0.1076    
C1126  C        C_2     0.19887   0.71073   0.96367        -0.1076    
C1127  C        C_2    0.05437   0.65259   0.96268        -0.1292    
C1128  C        C_2    0.19564   0.72241   0.78731        -0.1292    
C1129  C        C_2    0.06787   0.66539   0.99894         0.0449    
C1130  C        C_2    0.18213   0.70961   0.75105         0.0449    
C1131  C        C_R    0.09625   0.67844   0.99790         0.0434    
C1132  C        C_R    0.15375   0.69656   0.75210         0.0434    
C1133  C        C_R    0.13711   0.69919   0.79054        -0.1564    
C1134  C        C_R    0.11290   0.67581   0.95946        -0.1564    
C1135  C        C_R    0.10835   0.69013   0.78844        -0.1852    
C1136  C        C_R    0.14165   0.68487   0.96156        -0.1852    
N1137  N        N_3    0.02728   0.65078   0.77316        -0.2672    
N1138  N        N_3    0.22272   0.72422   0.97683        -0.2672    
N1139  N        N_3    0.02928   0.64356   0.97765        -0.1139    
N1140  N        N_3    0.22072   0.73144   0.77234        -0.1139    
H1141  H        H_     0.05536   0.67162   0.81635         0.1382    
H1142  H        H_     0.19464   0.70338   0.93364         0.1382    
H1143  H        H_     0.06125   0.65035   0.93224         0.1093    
H1144  H        H_     0.18875   0.72465   0.81775         0.1093    
H1145  H        H_     0.14538   0.70718   0.81825         0.1478    
H1146  H        H_     0.10462   0.66782   0.93175         0.1478    
H1147  H        H_     0.09698   0.69193   0.81471         0.1419    
H1148  H        H_     0.15302   0.68307   0.93529         0.1419    
C1149  C        C_2     0.44751   0.66273   0.83708        -0.1076    
C1150  C        C_2     0.30249   0.71228   0.91293        -0.1076    
C1151  C        C_2    0.44428   0.65104   0.91072        -0.1292    
C1152  C        C_2    0.30572   0.72396   0.83929        -0.1292    
C1153  C        C_2    0.42993   0.66289   0.87347         0.0449    
C1154  C        C_2    0.32007   0.71211   0.87654         0.0449    
C1155  C        C_R    0.39998   0.67416   0.87266         0.0434    
C1156  C        C_R    0.35002   0.70085   0.87734         0.0434    
C1157  C        C_R    0.36351   0.69989   0.83518        -0.1564    
C1158  C        C_R    0.38649   0.67511   0.91482        -0.1564    
C1159  C        C_R    0.38849   0.68654   0.83284        -0.1852    
C1160  C        C_R    0.36151   0.68846   0.91716        -0.1852    
N1161  N        N_3    0.47272   0.65078   0.85184        -0.2672    
N1162  N        N_3    0.27728   0.72422   0.89817        -0.2672    
N1163  N        N_3    0.47072   0.64356   0.89735        -0.1139    
N1164  N        N_3    0.27928   0.73144   0.85265        -0.1139    
H1165  H        H_     0.44298   0.66973   0.80668         0.1382    
H1166  H        H_     0.30702   0.70527   0.94332         0.1382    
H1167  H        H_     0.43709   0.64845   0.94079         0.1093    
H1168  H        H_     0.31291   0.72655   0.80921         0.1093    
H1169  H        H_     0.35566   0.70836   0.80797         0.1478    
H1170  H        H_     0.39435   0.66664   0.94203         0.1478    
H1171  H        H_     0.39771   0.68589   0.80403         0.1419    
H1172  H        H_     0.35229   0.68911   0.94598         0.1419    
C1173  C        C_2     0.44751   0.58727   0.96208        -0.1076    
C1174  C        C_2     0.30249   0.53773   0.78793        -0.1076    
C1175  C        C_2    0.44428   0.59896   0.78572        -0.1292    
C1176  C        C_2    0.30572   0.52604   0.96429        -0.1292    
C1177  C        C_2    0.42993   0.58711   0.99847         0.0449    
C1178  C        C_2    0.32007   0.53789   0.75154         0.0449    
C1179  C        C_R    0.39998   0.57585   0.99766         0.0434    
C1180  C        C_R    0.35002   0.54915   0.75234         0.0434    
C1181  C        C_R    0.36351   0.55011   0.96018        -0.1564    
C1182  C        C_R    0.38649   0.57489   0.78982        -0.1564    
C1183  C        C_R    0.38849   0.56346   0.95784        -0.1852    
C1184  C        C_R    0.36151   0.56154   0.79216        -0.1852    
N1185  N        N_3    0.47272   0.59922   0.97684        -0.2672    
N1186  N        N_3    0.27728   0.52578   0.77317        -0.2672    
N1187  N        N_3    0.47072   0.60644   0.77235        -0.1139    
N1188  N        N_3    0.27928   0.51856   0.97765        -0.1139    
H1189  H        H_     0.44298   0.58027   0.93168         0.1382    
H1190  H        H_     0.30702   0.54473   0.81832         0.1382    
H1191  H        H_     0.43709   0.60155   0.81579         0.1093    
H1192  H        H_     0.31291   0.52345   0.93421         0.1093    
H1193  H        H_     0.35566   0.54164   0.93297         0.1478    
H1194  H        H_     0.39435   0.58336   0.81703         0.1478    
H1195  H        H_     0.39771   0.56411   0.92903         0.1419    
H1196  H        H_     0.35229   0.56089   0.82098         0.1419    
Co1197 Co      Zn3+2   0.00000   0.62024   0.93750          0.668    
Co1198 Co      Zn3+2   0.00000   0.62976   0.81250          0.668    
Co1199 Co      Zn3+2   0.25000   0.74524   0.93750          0.668    
Co1200 Co      Zn3+2   0.25000   0.50476   0.81250          0.668    
C1201  C        C_2     0.19751   0.78773   0.08708        -0.1076    
C1202  C        C_2     0.05249   0.83727   0.16293        -0.1076    
C1203  C        C_2    0.19428   0.77604   0.16072        -0.1292    
C1204  C        C_2    0.05572   0.84896   0.08929        -0.1292    
C1205  C        C_2    0.17993   0.78789   0.12347         0.0449    
C1206  C        C_2    0.07007   0.83711   0.12654         0.0449    
C1207  C        C_R    0.14998   0.79916   0.12266         0.0434    
C1208  C        C_R    0.10002   0.82585   0.12734         0.0434    
C1209  C        C_R    0.11351   0.82489   0.08518        -0.1564    
C1210  C        C_R    0.13649   0.80011   0.16482        -0.1564    
C1211  C        C_R    0.13849   0.81154   0.08284        -0.1852    
C1212  C        C_R    0.11151   0.81346   0.16716        -0.1852    
N1213  N        N_3    0.22272   0.77578   0.10184        -0.2672    
N1214  N        N_3    0.02728   0.84922   0.14817        -0.2672    
N1215  N        N_3    0.22072   0.76856   0.14735        -0.1139    
N1216  N        N_3    0.02928   0.85644   0.10266        -0.1139    
H1217  H        H_     0.19298   0.79473   0.05668         0.1382    
H1218  H        H_     0.05702   0.83027   0.19332         0.1382    
H1219  H        H_     0.18709   0.77345   0.19079         0.1093    
H1220  H        H_     0.06291   0.85155   0.05921         0.1093    
H1221  H        H_     0.10566   0.83336   0.05797         0.1478    
H1222  H        H_     0.14434   0.79164   0.19203         0.1478    
H1223  H        H_     0.14771   0.81089   0.05403         0.1419    
H1224  H        H_     0.10229   0.81411   0.19598         0.1419    
C1225  C        C_2     0.05113   0.91427   0.03632        -0.1076    
C1226  C        C_2     0.19887   0.96073   0.21367        -0.1076    
C1227  C        C_2    0.05437   0.90259   0.21268        -0.1292    
C1228  C        C_2    0.19564   0.97241   0.03731        -0.1292    
C1229  C        C_2    0.06787   0.91539   0.24894         0.0449    
C1230  C        C_2    0.18213   0.95961   0.00105         0.0449    
C1231  C        C_R    0.09625   0.92844   0.24790         0.0434    
C1232  C        C_R    0.15375   0.94656   0.00210         0.0434    
C1233  C        C_R    0.13711   0.94919   0.04054        -0.1564    
C1234  C        C_R    0.11290   0.92581   0.20946        -0.1564    
C1235  C        C_R    0.10835   0.94013   0.03844        -0.1852    
C1236  C        C_R    0.14165   0.93487   0.21156        -0.1852    
N1237  N        N_3    0.02728   0.90078   0.02316        -0.2672    
N1238  N        N_3    0.22272   0.97422   0.22683        -0.2672    
N1239  N        N_3    0.02928   0.89356   0.22765        -0.1139    
N1240  N        N_3    0.22072   0.98144   0.02235        -0.1139    
H1241  H        H_     0.05536   0.92162   0.06635         0.1382    
H1242  H        H_     0.19464   0.95338   0.18364         0.1382    
H1243  H        H_     0.06125   0.90035   0.18224         0.1093    
H1244  H        H_     0.18875   0.97465   0.06775         0.1093    
H1245  H        H_     0.14538   0.95718   0.06825         0.1478    
H1246  H        H_     0.10462   0.91782   0.18175         0.1478    
H1247  H        H_     0.09698   0.94193   0.06471         0.1419    
H1248  H        H_     0.15302   0.93307   0.18529         0.1419    
C1249  C        C_2     0.44751   0.91273   0.08708        -0.1076    
C1250  C        C_2     0.30249   0.96227   0.16293        -0.1076    
C1251  C        C_2    0.44428   0.90104   0.16072        -0.1292    
C1252  C        C_2    0.30572   0.97396   0.08929        -0.1292    
C1253  C        C_2    0.42993   0.91289   0.12347         0.0449    
C1254  C        C_2    0.32007   0.96211   0.12654         0.0449    
C1255  C        C_R    0.39998   0.92416   0.12266         0.0434    
C1256  C        C_R    0.35002   0.95085   0.12734         0.0434    
C1257  C        C_R    0.36351   0.94989   0.08518        -0.1564    
C1258  C        C_R    0.38649   0.92511   0.16482        -0.1564    
C1259  C        C_R    0.38849   0.93654   0.08284        -0.1852    
C1260  C        C_R    0.36151   0.93846   0.16716        -0.1852    
N1261  N        N_3    0.47272   0.90078   0.10184        -0.2672    
N1262  N        N_3    0.27728   0.97422   0.14817        -0.2672    
N1263  N        N_3    0.47072   0.89356   0.14735        -0.1139    
N1264  N        N_3    0.27928   0.98144   0.10266        -0.1139    
H1265  H        H_     0.44298   0.91973   0.05668         0.1382    
H1266  H        H_     0.30702   0.95527   0.19332         0.1382    
H1267  H        H_     0.43709   0.89845   0.19079         0.1093    
H1268  H        H_     0.31291   0.97655   0.05921         0.1093    
H1269  H        H_     0.35566   0.95836   0.05797         0.1478    
H1270  H        H_     0.39435   0.91664   0.19203         0.1478    
H1271  H        H_     0.39771   0.93589   0.05403         0.1419    
H1272  H        H_     0.35229   0.93911   0.19598         0.1419    
C1273  C        C_2     0.44751   0.83727   0.21208        -0.1076    
C1274  C        C_2     0.30249   0.78773   0.03793        -0.1076    
C1275  C        C_2    0.44428   0.84896   0.03572        -0.1292    
C1276  C        C_2    0.30572   0.77604   0.21429        -0.1292    
C1277  C        C_2    0.42993   0.83711   0.24847         0.0449    
C1278  C        C_2    0.32007   0.78789   0.00154         0.0449    
C1279  C        C_R    0.39998   0.82585   0.24766         0.0434    
C1280  C        C_R    0.35002   0.79915   0.00234         0.0434    
C1281  C        C_R    0.36351   0.80011   0.21018        -0.1564    
C1282  C        C_R    0.38649   0.82489   0.03982        -0.1564    
C1283  C        C_R    0.38849   0.81346   0.20784        -0.1852    
C1284  C        C_R    0.36151   0.81154   0.04216        -0.1852    
N1285  N        N_3    0.47272   0.84922   0.22684        -0.2672    
N1286  N        N_3    0.27728   0.77578   0.02317        -0.2672    
N1287  N        N_3    0.47072   0.85644   0.02235        -0.1139    
N1288  N        N_3    0.27928   0.76856   0.22765        -0.1139    
H1289  H        H_     0.44298   0.83027   0.18168         0.1382    
H1290  H        H_     0.30702   0.79473   0.06832         0.1382    
H1291  H        H_     0.43709   0.85155   0.06579         0.1093    
H1292  H        H_     0.31291   0.77345   0.18421         0.1093    
H1293  H        H_     0.35566   0.79164   0.18297         0.1478    
H1294  H        H_     0.39435   0.83336   0.06703         0.1478    
H1295  H        H_     0.39771   0.81411   0.17903         0.1419    
H1296  H        H_     0.35229   0.81089   0.07098         0.1419    
Co1297 Co      Zn3+2   0.00000   0.87024   0.18750          0.668    
Co1298 Co      Zn3+2   0.00000   0.87976   0.06250          0.668    
Co1299 Co      Zn3+2   0.25000   0.99524   0.18750          0.668    
Co1300 Co      Zn3+2   0.25000   0.75476   0.06250          0.668    
C1301  C        C_2     0.19751   0.78773   0.33708        -0.1076    
C1302  C        C_2     0.05249   0.83727   0.41293        -0.1076    
C1303  C        C_2    0.19428   0.77604   0.41072        -0.1292    
C1304  C        C_2    0.05572   0.84896   0.33929        -0.1292    
C1305  C        C_2    0.17993   0.78789   0.37347         0.0449    
C1306  C        C_2    0.07007   0.83711   0.37654         0.0449    
C1307  C        C_R    0.14998   0.79916   0.37266         0.0434    
C1308  C        C_R    0.10002   0.82585   0.37734         0.0434    
C1309  C        C_R    0.11351   0.82489   0.33518        -0.1564    
C1310  C        C_R    0.13649   0.80011   0.41482        -0.1564    
C1311  C        C_R    0.13849   0.81154   0.33284        -0.1852    
C1312  C        C_R    0.11151   0.81346   0.41716        -0.1852    
N1313  N        N_3    0.22272   0.77578   0.35184        -0.2672    
N1314  N        N_3    0.02728   0.84922   0.39817        -0.2672    
N1315  N        N_3    0.22072   0.76856   0.39735        -0.1139    
N1316  N        N_3    0.02928   0.85644   0.35265        -0.1139    
H1317  H        H_     0.19298   0.79473   0.30668         0.1382    
H1318  H        H_     0.05702   0.83027   0.44332         0.1382    
H1319  H        H_     0.18709   0.77345   0.44079         0.1093    
H1320  H        H_     0.06291   0.85155   0.30921         0.1093    
H1321  H        H_     0.10566   0.83336   0.30797         0.1478    
H1322  H        H_     0.14434   0.79164   0.44203         0.1478    
H1323  H        H_     0.14771   0.81089   0.30403         0.1419    
H1324  H        H_     0.10229   0.81411   0.44598         0.1419    
C1325  C        C_2     0.05113   0.91427   0.28632        -0.1076    
C1326  C        C_2     0.19887   0.96073   0.46367        -0.1076    
C1327  C        C_2    0.05437   0.90259   0.46268        -0.1292    
C1328  C        C_2    0.19564   0.97241   0.28731        -0.1292    
C1329  C        C_2    0.06787   0.91539   0.49894         0.0449    
C1330  C        C_2    0.18213   0.95961   0.25105         0.0449    
C1331  C        C_R    0.09625   0.92844   0.49790         0.0434    
C1332  C        C_R    0.15375   0.94656   0.25210         0.0434    
C1333  C        C_R    0.13711   0.94919   0.29054        -0.1564    
C1334  C        C_R    0.11290   0.92581   0.45946        -0.1564    
C1335  C        C_R    0.10835   0.94013   0.28844        -0.1852    
C1336  C        C_R    0.14165   0.93487   0.46156        -0.1852    
N1337  N        N_3    0.02728   0.90078   0.27316        -0.2672    
N1338  N        N_3    0.22272   0.97422   0.47683        -0.2672    
N1339  N        N_3    0.02928   0.89356   0.47765        -0.1139    
N1340  N        N_3    0.22072   0.98144   0.27235        -0.1139    
H1341  H        H_     0.05536   0.92162   0.31635         0.1382    
H1342  H        H_     0.19464   0.95338   0.43364         0.1382    
H1343  H        H_     0.06125   0.90035   0.43224         0.1093    
H1344  H        H_     0.18875   0.97465   0.31775         0.1093    
H1345  H        H_     0.14538   0.95718   0.31825         0.1478    
H1346  H        H_     0.10462   0.91782   0.43175         0.1478    
H1347  H        H_     0.09698   0.94193   0.31471         0.1419    
H1348  H        H_     0.15302   0.93307   0.43529         0.1419    
C1349  C        C_2     0.44751   0.91273   0.33708        -0.1076    
C1350  C        C_2     0.30249   0.96227   0.41293        -0.1076    
C1351  C        C_2    0.44428   0.90104   0.41072        -0.1292    
C1352  C        C_2    0.30572   0.97396   0.33929        -0.1292    
C1353  C        C_2    0.42993   0.91289   0.37347         0.0449    
C1354  C        C_2    0.32007   0.96211   0.37654         0.0449    
C1355  C        C_R    0.39998   0.92416   0.37266         0.0434    
C1356  C        C_R    0.35002   0.95085   0.37734         0.0434    
C1357  C        C_R    0.36351   0.94989   0.33518        -0.1564    
C1358  C        C_R    0.38649   0.92511   0.41482        -0.1564    
C1359  C        C_R    0.38849   0.93654   0.33284        -0.1852    
C1360  C        C_R    0.36151   0.93846   0.41716        -0.1852    
N1361  N        N_3    0.47272   0.90078   0.35184        -0.2672    
N1362  N        N_3    0.27728   0.97422   0.39817        -0.2672    
N1363  N        N_3    0.47072   0.89356   0.39735        -0.1139    
N1364  N        N_3    0.27928   0.98144   0.35266        -0.1139    
H1365  H        H_     0.44298   0.91973   0.30668         0.1382    
H1366  H        H_     0.30702   0.95527   0.44332         0.1382    
H1367  H        H_     0.43709   0.89845   0.44079         0.1093    
H1368  H        H_     0.31291   0.97655   0.30921         0.1093    
H1369  H        H_     0.35566   0.95836   0.30797         0.1478    
H1370  H        H_     0.39435   0.91664   0.44203         0.1478    
H1371  H        H_     0.39771   0.93589   0.30403         0.1419    
H1372  H        H_     0.35229   0.93911   0.44598         0.1419    
C1373  C        C_2     0.44751   0.83727   0.46208        -0.1076    
C1374  C        C_2     0.30249   0.78773   0.28793        -0.1076    
C1375  C        C_2    0.44428   0.84896   0.28572        -0.1292    
C1376  C        C_2    0.30572   0.77604   0.46429        -0.1292    
C1377  C        C_2    0.42993   0.83711   0.49847         0.0449    
C1378  C        C_2    0.32007   0.78789   0.25154         0.0449    
C1379  C        C_R    0.39998   0.82585   0.49766         0.0434    
C1380  C        C_R    0.35002   0.79915   0.25234         0.0434    
C1381  C        C_R    0.36351   0.80011   0.46018        -0.1564    
C1382  C        C_R    0.38649   0.82489   0.28982        -0.1564    
C1383  C        C_R    0.38849   0.81346   0.45784        -0.1852    
C1384  C        C_R    0.36151   0.81154   0.29216        -0.1852    
N1385  N        N_3    0.47272   0.84922   0.47684        -0.2672    
N1386  N        N_3    0.27728   0.77578   0.27317        -0.2672    
N1387  N        N_3    0.47072   0.85644   0.27235        -0.1139    
N1388  N        N_3    0.27928   0.76856   0.47765        -0.1139    
H1389  H        H_     0.44298   0.83027   0.43168         0.1382    
H1390  H        H_     0.30702   0.79473   0.31832         0.1382    
H1391  H        H_     0.43709   0.85155   0.31579         0.1093    
H1392  H        H_     0.31291   0.77345   0.43421         0.1093    
H1393  H        H_     0.35566   0.79164   0.43297         0.1478    
H1394  H        H_     0.39435   0.83336   0.31703         0.1478    
H1395  H        H_     0.39771   0.81411   0.42903         0.1419    
H1396  H        H_     0.35229   0.81089   0.32098         0.1419    
Co1397 Co      Zn3+2   0.00000   0.87024   0.43750          0.668    
Co1398 Co      Zn3+2   0.00000   0.87976   0.31250          0.668    
Co1399 Co      Zn3+2   0.25000   0.99524   0.43750          0.668    
Co1400 Co      Zn3+2   0.25000   0.75476   0.31250          0.668    
C1401  C        C_2     0.19751   0.78773   0.58708        -0.1076    
C1402  C        C_2     0.05249   0.83727   0.66293        -0.1076    
C1403  C        C_2    0.19428   0.77604   0.66072        -0.1292    
C1404  C        C_2    0.05572   0.84896   0.58929        -0.1292    
C1405  C        C_2    0.17993   0.78789   0.62347         0.0449    
C1406  C        C_2    0.07007   0.83711   0.62654         0.0449    
C1407  C        C_R    0.14998   0.79916   0.62266         0.0434    
C1408  C        C_R    0.10002   0.82585   0.62734         0.0434    
C1409  C        C_R    0.11351   0.82489   0.58518        -0.1564    
C1410  C        C_R    0.13649   0.80011   0.66482        -0.1564    
C1411  C        C_R    0.13849   0.81154   0.58284        -0.1852    
C1412  C        C_R    0.11151   0.81346   0.66716        -0.1852    
N1413  N        N_3    0.22272   0.77578   0.60184        -0.2672    
N1414  N        N_3    0.02728   0.84922   0.64817        -0.2672    
N1415  N        N_3    0.22072   0.76856   0.64735        -0.1139    
N1416  N        N_3    0.02928   0.85644   0.60266        -0.1139    
H1417  H        H_     0.19298   0.79473   0.55668         0.1382    
H1418  H        H_     0.05702   0.83027   0.69332         0.1382    
H1419  H        H_     0.18709   0.77345   0.69079         0.1093    
H1420  H        H_     0.06291   0.85155   0.55921         0.1093    
H1421  H        H_     0.10566   0.83336   0.55797         0.1478    
H1422  H        H_     0.14434   0.79164   0.69203         0.1478    
H1423  H        H_     0.14771   0.81089   0.55403         0.1419    
H1424  H        H_     0.10229   0.81411   0.69598         0.1419    
C1425  C        C_2     0.05113   0.91427   0.53632        -0.1076    
C1426  C        C_2     0.19887   0.96073   0.71367        -0.1076    
C1427  C        C_2    0.05437   0.90259   0.71268        -0.1292    
C1428  C        C_2    0.19564   0.97241   0.53731        -0.1292    
C1429  C        C_2    0.06787   0.91539   0.74894         0.0449    
C1430  C        C_2    0.18213   0.95961   0.50105         0.0449    
C1431  C        C_R    0.09625   0.92844   0.74790         0.0434    
C1432  C        C_R    0.15375   0.94656   0.50210         0.0434    
C1433  C        C_R    0.13711   0.94919   0.54054        -0.1564    
C1434  C        C_R    0.11290   0.92581   0.70946        -0.1564    
C1435  C        C_R    0.10835   0.94013   0.53844        -0.1852    
C1436  C        C_R    0.14165   0.93487   0.71156        -0.1852    
N1437  N        N_3    0.02728   0.90078   0.52316        -0.2672    
N1438  N        N_3    0.22272   0.97422   0.72683        -0.2672    
N1439  N        N_3    0.02928   0.89356   0.72765        -0.1139    
N1440  N        N_3    0.22072   0.98144   0.52235        -0.1139    
H1441  H        H_     0.05536   0.92162   0.56635         0.1382    
H1442  H        H_     0.19464   0.95338   0.68364         0.1382    
H1443  H        H_     0.06125   0.90035   0.68224         0.1093    
H1444  H        H_     0.18875   0.97465   0.56775         0.1093    
H1445  H        H_     0.14538   0.95718   0.56825         0.1478    
H1446  H        H_     0.10462   0.91782   0.68175         0.1478    
H1447  H        H_     0.09698   0.94193   0.56471         0.1419    
H1448  H        H_     0.15302   0.93307   0.68529         0.1419    
C1449  C        C_2     0.44751   0.91273   0.58708        -0.1076    
C1450  C        C_2     0.30249   0.96227   0.66293        -0.1076    
C1451  C        C_2    0.44428   0.90104   0.66072        -0.1292    
C1452  C        C_2    0.30572   0.97396   0.58929        -0.1292    
C1453  C        C_2    0.42993   0.91289   0.62347         0.0449    
C1454  C        C_2    0.32007   0.96211   0.62654         0.0449    
C1455  C        C_R    0.39998   0.92416   0.62266         0.0434    
C1456  C        C_R    0.35002   0.95085   0.62734         0.0434    
C1457  C        C_R    0.36351   0.94989   0.58518        -0.1564    
C1458  C        C_R    0.38649   0.92511   0.66482        -0.1564    
C1459  C        C_R    0.38849   0.93654   0.58284        -0.1852    
C1460  C        C_R    0.36151   0.93846   0.66716        -0.1852    
N1461  N        N_3    0.47272   0.90078   0.60184        -0.2672    
N1462  N        N_3    0.27728   0.97422   0.64817        -0.2672    
N1463  N        N_3    0.47072   0.89356   0.64735        -0.1139    
N1464  N        N_3    0.27928   0.98144   0.60265        -0.1139    
H1465  H        H_     0.44298   0.91973   0.55668         0.1382    
H1466  H        H_     0.30702   0.95527   0.69332         0.1382    
H1467  H        H_     0.43709   0.89845   0.69079         0.1093    
H1468  H        H_     0.31291   0.97655   0.55921         0.1093    
H1469  H        H_     0.35566   0.95836   0.55797         0.1478    
H1470  H        H_     0.39435   0.91664   0.69203         0.1478    
H1471  H        H_     0.39771   0.93589   0.55403         0.1419    
H1472  H        H_     0.35229   0.93911   0.69598         0.1419    
C1473  C        C_2     0.44751   0.83727   0.71208        -0.1076    
C1474  C        C_2     0.30249   0.78773   0.53793        -0.1076    
C1475  C        C_2    0.44428   0.84896   0.53572        -0.1292    
C1476  C        C_2    0.30572   0.77604   0.71429        -0.1292    
C1477  C        C_2    0.42993   0.83711   0.74847         0.0449    
C1478  C        C_2    0.32007   0.78789   0.50154         0.0449    
C1479  C        C_R    0.39998   0.82585   0.74766         0.0434    
C1480  C        C_R    0.35002   0.79915   0.50234         0.0434    
C1481  C        C_R    0.36351   0.80011   0.71018        -0.1564    
C1482  C        C_R    0.38649   0.82489   0.53982        -0.1564    
C1483  C        C_R    0.38849   0.81346   0.70784        -0.1852    
C1484  C        C_R    0.36151   0.81154   0.54216        -0.1852    
N1485  N        N_3    0.47272   0.84922   0.72684        -0.2672    
N1486  N        N_3    0.27728   0.77578   0.52317        -0.2672    
N1487  N        N_3    0.47072   0.85644   0.52235        -0.1139    
N1488  N        N_3    0.27928   0.76856   0.72765        -0.1139    
H1489  H        H_     0.44298   0.83027   0.68168         0.1382    
H1490  H        H_     0.30702   0.79473   0.56832         0.1382    
H1491  H        H_     0.43709   0.85155   0.56579         0.1093    
H1492  H        H_     0.31291   0.77345   0.68421         0.1093    
H1493  H        H_     0.35566   0.79164   0.68297         0.1478    
H1494  H        H_     0.39435   0.83336   0.56703         0.1478    
H1495  H        H_     0.39771   0.81411   0.67903         0.1419    
H1496  H        H_     0.35229   0.81089   0.57098         0.1419    
Co1497 Co      Zn3+2   0.00000   0.87024   0.68750          0.668    
Co1498 Co      Zn3+2   0.00000   0.87976   0.56250          0.668    
Co1499 Co      Zn3+2   0.25000   0.99524   0.68750          0.668    
Co1500 Co      Zn3+2   0.25000   0.75476   0.56250          0.668    
C1501  C        C_2     0.19751   0.78773   0.83708        -0.1076    
C1502  C        C_2     0.05249   0.83727   0.91293        -0.1076    
C1503  C        C_2    0.19428   0.77604   0.91072        -0.1292    
C1504  C        C_2    0.05572   0.84896   0.83929        -0.1292    
C1505  C        C_2    0.17993   0.78789   0.87347         0.0449    
C1506  C        C_2    0.07007   0.83711   0.87654         0.0449    
C1507  C        C_R    0.14998   0.79916   0.87266         0.0434    
C1508  C        C_R    0.10002   0.82585   0.87734         0.0434    
C1509  C        C_R    0.11351   0.82489   0.83518        -0.1564    
C1510  C        C_R    0.13649   0.80011   0.91482        -0.1564    
C1511  C        C_R    0.13849   0.81154   0.83284        -0.1852    
C1512  C        C_R    0.11151   0.81346   0.91716        -0.1852    
N1513  N        N_3    0.22272   0.77578   0.85184        -0.2672    
N1514  N        N_3    0.02728   0.84922   0.89817        -0.2672    
N1515  N        N_3    0.22072   0.76856   0.89735        -0.1139    
N1516  N        N_3    0.02928   0.85644   0.85265        -0.1139    
H1517  H        H_     0.19298   0.79473   0.80668         0.1382    
H1518  H        H_     0.05702   0.83027   0.94332         0.1382    
H1519  H        H_     0.18709   0.77345   0.94079         0.1093    
H1520  H        H_     0.06291   0.85155   0.80921         0.1093    
H1521  H        H_     0.10566   0.83336   0.80797         0.1478    
H1522  H        H_     0.14434   0.79164   0.94203         0.1478    
H1523  H        H_     0.14771   0.81089   0.80403         0.1419    
H1524  H        H_     0.10229   0.81411   0.94598         0.1419    
C1525  C        C_2     0.05113   0.91427   0.78632        -0.1076    
C1526  C        C_2     0.19887   0.96073   0.96367        -0.1076    
C1527  C        C_2    0.05437   0.90259   0.96268        -0.1292    
C1528  C        C_2    0.19564   0.97241   0.78731        -0.1292    
C1529  C        C_2    0.06787   0.91539   0.99894         0.0449    
C1530  C        C_2    0.18213   0.95961   0.75105         0.0449    
C1531  C        C_R    0.09625   0.92844   0.99790         0.0434    
C1532  C        C_R    0.15375   0.94656   0.75210         0.0434    
C1533  C        C_R    0.13711   0.94919   0.79054        -0.1564    
C1534  C        C_R    0.11290   0.92581   0.95946        -0.1564    
C1535  C        C_R    0.10835   0.94013   0.78844        -0.1852    
C1536  C        C_R    0.14165   0.93487   0.96156        -0.1852    
N1537  N        N_3    0.02728   0.90078   0.77316        -0.2672    
N1538  N        N_3    0.22272   0.97422   0.97683        -0.2672    
N1539  N        N_3    0.02928   0.89356   0.97765        -0.1139    
N1540  N        N_3    0.22072   0.98144   0.77234        -0.1139    
H1541  H        H_     0.05536   0.92162   0.81635         0.1382    
H1542  H        H_     0.19464   0.95338   0.93364         0.1382    
H1543  H        H_     0.06125   0.90035   0.93224         0.1093    
H1544  H        H_     0.18875   0.97465   0.81775         0.1093    
H1545  H        H_     0.14538   0.95718   0.81825         0.1478    
H1546  H        H_     0.10462   0.91782   0.93175         0.1478    
H1547  H        H_     0.09698   0.94193   0.81471         0.1419    
H1548  H        H_     0.15302   0.93307   0.93529         0.1419    
C1549  C        C_2     0.44751   0.91273   0.83708        -0.1076    
C1550  C        C_2     0.30249   0.96227   0.91293        -0.1076    
C1551  C        C_2    0.44428   0.90104   0.91072        -0.1292    
C1552  C        C_2    0.30572   0.97396   0.83929        -0.1292    
C1553  C        C_2    0.42993   0.91289   0.87347         0.0449    
C1554  C        C_2    0.32007   0.96211   0.87654         0.0449    
C1555  C        C_R    0.39998   0.92416   0.87266         0.0434    
C1556  C        C_R    0.35002   0.95085   0.87734         0.0434    
C1557  C        C_R    0.36351   0.94989   0.83518        -0.1564    
C1558  C        C_R    0.38649   0.92511   0.91482        -0.1564    
C1559  C        C_R    0.38849   0.93654   0.83284        -0.1852    
C1560  C        C_R    0.36151   0.93846   0.91716        -0.1852    
N1561  N        N_3    0.47272   0.90078   0.85184        -0.2672    
N1562  N        N_3    0.27728   0.97422   0.89817        -0.2672    
N1563  N        N_3    0.47072   0.89356   0.89735        -0.1139    
N1564  N        N_3    0.27928   0.98144   0.85265        -0.1139    
H1565  H        H_     0.44298   0.91973   0.80668         0.1382    
H1566  H        H_     0.30702   0.95527   0.94332         0.1382    
H1567  H        H_     0.43709   0.89845   0.94079         0.1093    
H1568  H        H_     0.31291   0.97655   0.80921         0.1093    
H1569  H        H_     0.35566   0.95836   0.80797         0.1478    
H1570  H        H_     0.39435   0.91664   0.94203         0.1478    
H1571  H        H_     0.39771   0.93589   0.80403         0.1419    
H1572  H        H_     0.35229   0.93911   0.94598         0.1419    
C1573  C        C_2     0.44751   0.83727   0.96208        -0.1076    
C1574  C        C_2     0.30249   0.78773   0.78793        -0.1076    
C1575  C        C_2    0.44428   0.84896   0.78572        -0.1292    
C1576  C        C_2    0.30572   0.77604   0.96429        -0.1292    
C1577  C        C_2    0.42993   0.83711   0.99847         0.0449    
C1578  C        C_2    0.32007   0.78789   0.75154         0.0449    
C1579  C        C_R    0.39998   0.82585   0.99766         0.0434    
C1580  C        C_R    0.35002   0.79915   0.75234         0.0434    
C1581  C        C_R    0.36351   0.80011   0.96018        -0.1564    
C1582  C        C_R    0.38649   0.82489   0.78982        -0.1564    
C1583  C        C_R    0.38849   0.81346   0.95784        -0.1852    
C1584  C        C_R    0.36151   0.81154   0.79216        -0.1852    
N1585  N        N_3    0.47272   0.84922   0.97684        -0.2672    
N1586  N        N_3    0.27728   0.77578   0.77317        -0.2672    
N1587  N        N_3    0.47072   0.85644   0.77235        -0.1139    
N1588  N        N_3    0.27928   0.76856   0.97765        -0.1139    
H1589  H        H_     0.44298   0.83027   0.93168         0.1382    
H1590  H        H_     0.30702   0.79473   0.81832         0.1382    
H1591  H        H_     0.43709   0.85155   0.81579         0.1093    
H1592  H        H_     0.31291   0.77345   0.93421         0.1093    
H1593  H        H_     0.35566   0.79164   0.93297         0.1478    
H1594  H        H_     0.39435   0.83336   0.81703         0.1478    
H1595  H        H_     0.39771   0.81411   0.92903         0.1419    
H1596  H        H_     0.35229   0.81089   0.82098         0.1419    
Co1597 Co      Zn3+2   0.00000   0.87024   0.93750          0.668    
Co1598 Co      Zn3+2   0.00000   0.87976   0.81250          0.668    
Co1599 Co      Zn3+2   0.25000   0.99524   0.93750          0.668    
Co1600 Co      Zn3+2   0.25000   0.75476   0.81250          0.668    
C1601  C        C_2     0.69751   0.03773   0.08708        -0.1076    
C1602  C        C_2     0.55249   0.08727   0.16293        -0.1076    
C1603  C        C_2    0.69428   0.02604   0.16072        -0.1292    
C1604  C        C_2    0.55572   0.09896   0.08929        -0.1292    
C1605  C        C_2    0.67993   0.03789   0.12347         0.0449    
C1606  C        C_2    0.57007   0.08711   0.12654         0.0449    
C1607  C        C_R    0.64998   0.04915   0.12266         0.0434    
C1608  C        C_R    0.60002   0.07585   0.12734         0.0434    
C1609  C        C_R    0.61351   0.07489   0.08518        -0.1564    
C1610  C        C_R    0.63649   0.05011   0.16482        -0.1564    
C1611  C        C_R    0.63849   0.06154   0.08284        -0.1852    
C1612  C        C_R    0.61151   0.06346   0.16716        -0.1852    
N1613  N        N_3    0.72272   0.02578   0.10184        -0.2672    
N1614  N        N_3    0.52728   0.09922   0.14817        -0.2672    
N1615  N        N_3    0.72072   0.01856   0.14735        -0.1139    
N1616  N        N_3    0.52928   0.10644   0.10266        -0.1139    
H1617  H        H_     0.69298   0.04473   0.05668         0.1382    
H1618  H        H_     0.55702   0.08027   0.19332         0.1382    
H1619  H        H_     0.68709   0.02345   0.19079         0.1093    
H1620  H        H_     0.56291   0.10155   0.05921         0.1093    
H1621  H        H_     0.60566   0.08336   0.05797         0.1478    
H1622  H        H_     0.64434   0.04164   0.19203         0.1478    
H1623  H        H_     0.64771   0.06089   0.05403         0.1419    
H1624  H        H_     0.60229   0.06411   0.19598         0.1419    
C1625  C        C_2     0.55113   0.16427   0.03632        -0.1076    
C1626  C        C_2     0.69887   0.21073   0.21367        -0.1076    
C1627  C        C_2    0.55437   0.15259   0.21268        -0.1292    
C1628  C        C_2    0.69564   0.22241   0.03731        -0.1292    
C1629  C        C_2    0.56787   0.16539   0.24894         0.0449    
C1630  C        C_2    0.68213   0.20961   0.00105         0.0449    
C1631  C        C_R    0.59625   0.17844   0.24790         0.0434    
C1632  C        C_R    0.65375   0.19656   0.00210         0.0434    
C1633  C        C_R    0.63711   0.19919   0.04054        -0.1564    
C1634  C        C_R    0.61290   0.17581   0.20946        -0.1564    
C1635  C        C_R    0.60835   0.19013   0.03844        -0.1852    
C1636  C        C_R    0.64165   0.18487   0.21156        -0.1852    
N1637  N        N_3    0.52728   0.15078   0.02316        -0.2672    
N1638  N        N_3    0.72272   0.22422   0.22683        -0.2672    
N1639  N        N_3    0.52928   0.14356   0.22765        -0.1139    
N1640  N        N_3    0.72072   0.23144   0.02235        -0.1139    
H1641  H        H_     0.55536   0.17162   0.06635         0.1382    
H1642  H        H_     0.69464   0.20338   0.18364         0.1382    
H1643  H        H_     0.56125   0.15035   0.18224         0.1093    
H1644  H        H_     0.68875   0.22465   0.06775         0.1093    
H1645  H        H_     0.64538   0.20718   0.06825         0.1478    
H1646  H        H_     0.60462   0.16782   0.18175         0.1478    
H1647  H        H_     0.59698   0.19193   0.06471         0.1419    
H1648  H        H_     0.65302   0.18307   0.18529         0.1419    
C1649  C        C_2     0.94751   0.16273   0.08708        -0.1076    
C1650  C        C_2     0.80249   0.21228   0.16293        -0.1076    
C1651  C        C_2    0.94428   0.15104   0.16072        -0.1292    
C1652  C        C_2    0.80572   0.22396   0.08929        -0.1292    
C1653  C        C_2    0.92993   0.16289   0.12347         0.0449    
C1654  C        C_2    0.82007   0.21211   0.12654         0.0449    
C1655  C        C_R    0.89998   0.17416   0.12266         0.0434    
C1656  C        C_R    0.85002   0.20085   0.12734         0.0434    
C1657  C        C_R    0.86351   0.19989   0.08518        -0.1564    
C1658  C        C_R    0.88649   0.17511   0.16482        -0.1564    
C1659  C        C_R    0.88849   0.18654   0.08284        -0.1852    
C1660  C        C_R    0.86151   0.18846   0.16716        -0.1852    
N1661  N        N_3    0.97272   0.15078   0.10184        -0.2672    
N1662  N        N_3    0.77728   0.22422   0.14817        -0.2672    
N1663  N        N_3    0.97072   0.14356   0.14735        -0.1139    
N1664  N        N_3    0.77928   0.23144   0.10266        -0.1139    
H1665  H        H_     0.94298   0.16973   0.05668         0.1382    
H1666  H        H_     0.80702   0.20527   0.19332         0.1382    
H1667  H        H_     0.93709   0.14845   0.19079         0.1093    
H1668  H        H_     0.81291   0.22655   0.05921         0.1093    
H1669  H        H_     0.85566   0.20836   0.05797         0.1478    
H1670  H        H_     0.89435   0.16664   0.19203         0.1478    
H1671  H        H_     0.89771   0.18589   0.05403         0.1419    
H1672  H        H_     0.85229   0.18911   0.19598         0.1419    
C1673  C        C_2     0.94751   0.08727   0.21208        -0.1076    
C1674  C        C_2     0.80249   0.03773   0.03793        -0.1076    
C1675  C        C_2    0.94428   0.09896   0.03572        -0.1292    
C1676  C        C_2    0.80572   0.02604   0.21429        -0.1292    
C1677  C        C_2    0.92993   0.08711   0.24847         0.0449    
C1678  C        C_2    0.82007   0.03789   0.00154         0.0449    
C1679  C        C_R    0.89998   0.07585   0.24766         0.0434    
C1680  C        C_R    0.85002   0.04915   0.00234         0.0434    
C1681  C        C_R    0.86351   0.05011   0.21018        -0.1564    
C1682  C        C_R    0.88649   0.07489   0.03982        -0.1564    
C1683  C        C_R    0.88849   0.06346   0.20784        -0.1852    
C1684  C        C_R    0.86151   0.06154   0.04216        -0.1852    
N1685  N        N_3    0.97272   0.09922   0.22684        -0.2672    
N1686  N        N_3    0.77728   0.02578   0.02317        -0.2672    
N1687  N        N_3    0.97072   0.10644   0.02235        -0.1139    
N1688  N        N_3    0.77928   0.01856   0.22765        -0.1139    
H1689  H        H_     0.94298   0.08027   0.18168         0.1382    
H1690  H        H_     0.80702   0.04473   0.06832         0.1382    
H1691  H        H_     0.93709   0.10155   0.06579         0.1093    
H1692  H        H_     0.81291   0.02345   0.18421         0.1093    
H1693  H        H_     0.85566   0.04164   0.18297         0.1478    
H1694  H        H_     0.89435   0.08336   0.06703         0.1478    
H1695  H        H_     0.89771   0.06411   0.17903         0.1419    
H1696  H        H_     0.85229   0.06089   0.07098         0.1419    
Co1697 Co      Zn3+2   0.50000   0.12024   0.18750          0.668    
Co1698 Co      Zn3+2   0.50000   0.12976   0.06250          0.668    
Co1699 Co      Zn3+2   0.75000   0.24524   0.18750          0.668    
Co1700 Co      Zn3+2   0.75000   0.00476   0.06250          0.668    
C1701  C        C_2     0.69751   0.03773   0.33708        -0.1076    
C1702  C        C_2     0.55249   0.08727   0.41293        -0.1076    
C1703  C        C_2    0.69428   0.02604   0.41072        -0.1292    
C1704  C        C_2    0.55572   0.09896   0.33929        -0.1292    
C1705  C        C_2    0.67993   0.03789   0.37347         0.0449    
C1706  C        C_2    0.57007   0.08711   0.37654         0.0449    
C1707  C        C_R    0.64998   0.04915   0.37266         0.0434    
C1708  C        C_R    0.60002   0.07585   0.37734         0.0434    
C1709  C        C_R    0.61351   0.07489   0.33518        -0.1564    
C1710  C        C_R    0.63649   0.05011   0.41482        -0.1564    
C1711  C        C_R    0.63849   0.06154   0.33284        -0.1852    
C1712  C        C_R    0.61151   0.06346   0.41716        -0.1852    
N1713  N        N_3    0.72272   0.02578   0.35184        -0.2672    
N1714  N        N_3    0.52728   0.09922   0.39817        -0.2672    
N1715  N        N_3    0.72072   0.01856   0.39735        -0.1139    
N1716  N        N_3    0.52928   0.10644   0.35265        -0.1139    
H1717  H        H_     0.69298   0.04473   0.30668         0.1382    
H1718  H        H_     0.55702   0.08027   0.44332         0.1382    
H1719  H        H_     0.68709   0.02345   0.44079         0.1093    
H1720  H        H_     0.56291   0.10155   0.30921         0.1093    
H1721  H        H_     0.60566   0.08336   0.30797         0.1478    
H1722  H        H_     0.64434   0.04164   0.44203         0.1478    
H1723  H        H_     0.64771   0.06089   0.30403         0.1419    
H1724  H        H_     0.60229   0.06411   0.44598         0.1419    
C1725  C        C_2     0.55113   0.16427   0.28632        -0.1076    
C1726  C        C_2     0.69887   0.21073   0.46367        -0.1076    
C1727  C        C_2    0.55437   0.15259   0.46268        -0.1292    
C1728  C        C_2    0.69564   0.22241   0.28731        -0.1292    
C1729  C        C_2    0.56787   0.16539   0.49894         0.0449    
C1730  C        C_2    0.68213   0.20961   0.25105         0.0449    
C1731  C        C_R    0.59625   0.17844   0.49790         0.0434    
C1732  C        C_R    0.65375   0.19656   0.25210         0.0434    
C1733  C        C_R    0.63711   0.19919   0.29054        -0.1564    
C1734  C        C_R    0.61290   0.17581   0.45946        -0.1564    
C1735  C        C_R    0.60835   0.19013   0.28844        -0.1852    
C1736  C        C_R    0.64165   0.18487   0.46156        -0.1852    
N1737  N        N_3    0.52728   0.15078   0.27316        -0.2672    
N1738  N        N_3    0.72272   0.22422   0.47683        -0.2672    
N1739  N        N_3    0.52928   0.14356   0.47765        -0.1139    
N1740  N        N_3    0.72072   0.23144   0.27234        -0.1139    
H1741  H        H_     0.55536   0.17162   0.31635         0.1382    
H1742  H        H_     0.69464   0.20338   0.43364         0.1382    
H1743  H        H_     0.56125   0.15035   0.43224         0.1093    
H1744  H        H_     0.68875   0.22465   0.31775         0.1093    
H1745  H        H_     0.64538   0.20718   0.31825         0.1478    
H1746  H        H_     0.60462   0.16782   0.43175         0.1478    
H1747  H        H_     0.59698   0.19193   0.31471         0.1419    
H1748  H        H_     0.65302   0.18307   0.43529         0.1419    
C1749  C        C_2     0.94751   0.16273   0.33708        -0.1076    
C1750  C        C_2     0.80249   0.21228   0.41293        -0.1076    
C1751  C        C_2    0.94428   0.15104   0.41072        -0.1292    
C1752  C        C_2    0.80572   0.22396   0.33929        -0.1292    
C1753  C        C_2    0.92993   0.16289   0.37347         0.0449    
C1754  C        C_2    0.82007   0.21211   0.37654         0.0449    
C1755  C        C_R    0.89998   0.17416   0.37266         0.0434    
C1756  C        C_R    0.85002   0.20085   0.37734         0.0434    
C1757  C        C_R    0.86351   0.19989   0.33518        -0.1564    
C1758  C        C_R    0.88649   0.17511   0.41482        -0.1564    
C1759  C        C_R    0.88849   0.18654   0.33284        -0.1852    
C1760  C        C_R    0.86151   0.18846   0.41716        -0.1852    
N1761  N        N_3    0.97272   0.15078   0.35184        -0.2672    
N1762  N        N_3    0.77728   0.22422   0.39817        -0.2672    
N1763  N        N_3    0.97072   0.14356   0.39735        -0.1139    
N1764  N        N_3    0.77928   0.23144   0.35265        -0.1139    
H1765  H        H_     0.94298   0.16973   0.30668         0.1382    
H1766  H        H_     0.80702   0.20527   0.44332         0.1382    
H1767  H        H_     0.93709   0.14845   0.44079         0.1093    
H1768  H        H_     0.81291   0.22655   0.30921         0.1093    
H1769  H        H_     0.85566   0.20836   0.30797         0.1478    
H1770  H        H_     0.89435   0.16664   0.44203         0.1478    
H1771  H        H_     0.89771   0.18589   0.30403         0.1419    
H1772  H        H_     0.85229   0.18911   0.44598         0.1419    
C1773  C        C_2     0.94751   0.08727   0.46208        -0.1076    
C1774  C        C_2     0.80249   0.03773   0.28793        -0.1076    
C1775  C        C_2    0.94428   0.09896   0.28572        -0.1292    
C1776  C        C_2    0.80572   0.02604   0.46429        -0.1292    
C1777  C        C_2    0.92993   0.08711   0.49847         0.0449    
C1778  C        C_2    0.82007   0.03789   0.25154         0.0449    
C1779  C        C_R    0.89998   0.07585   0.49766         0.0434    
C1780  C        C_R    0.85002   0.04915   0.25234         0.0434    
C1781  C        C_R    0.86351   0.05011   0.46018        -0.1564    
C1782  C        C_R    0.88649   0.07489   0.28982        -0.1564    
C1783  C        C_R    0.88849   0.06346   0.45784        -0.1852    
C1784  C        C_R    0.86151   0.06154   0.29216        -0.1852    
N1785  N        N_3    0.97272   0.09922   0.47684        -0.2672    
N1786  N        N_3    0.77728   0.02578   0.27317        -0.2672    
N1787  N        N_3    0.97072   0.10644   0.27235        -0.1139    
N1788  N        N_3    0.77928   0.01856   0.47765        -0.1139    
H1789  H        H_     0.94298   0.08027   0.43168         0.1382    
H1790  H        H_     0.80702   0.04473   0.31832         0.1382    
H1791  H        H_     0.93709   0.10155   0.31579         0.1093    
H1792  H        H_     0.81291   0.02345   0.43421         0.1093    
H1793  H        H_     0.85566   0.04164   0.43297         0.1478    
H1794  H        H_     0.89435   0.08336   0.31703         0.1478    
H1795  H        H_     0.89771   0.06411   0.42903         0.1419    
H1796  H        H_     0.85229   0.06089   0.32098         0.1419    
Co1797 Co      Zn3+2   0.50000   0.12024   0.43750          0.668    
Co1798 Co      Zn3+2   0.50000   0.12976   0.31250          0.668    
Co1799 Co      Zn3+2   0.75000   0.24524   0.43750          0.668    
Co1800 Co      Zn3+2   0.75000   0.00476   0.31250          0.668    
C1801  C        C_2     0.69751   0.03773   0.58708        -0.1076    
C1802  C        C_2     0.55249   0.08727   0.66293        -0.1076    
C1803  C        C_2    0.69428   0.02604   0.66072        -0.1292    
C1804  C        C_2    0.55572   0.09896   0.58929        -0.1292    
C1805  C        C_2    0.67993   0.03789   0.62347         0.0449    
C1806  C        C_2    0.57007   0.08711   0.62654         0.0449    
C1807  C        C_R    0.64998   0.04915   0.62266         0.0434    
C1808  C        C_R    0.60002   0.07585   0.62734         0.0434    
C1809  C        C_R    0.61351   0.07489   0.58518        -0.1564    
C1810  C        C_R    0.63649   0.05011   0.66482        -0.1564    
C1811  C        C_R    0.63849   0.06154   0.58284        -0.1852    
C1812  C        C_R    0.61151   0.06346   0.66716        -0.1852    
N1813  N        N_3    0.72272   0.02578   0.60184        -0.2672    
N1814  N        N_3    0.52728   0.09922   0.64817        -0.2672    
N1815  N        N_3    0.72072   0.01856   0.64735        -0.1139    
N1816  N        N_3    0.52928   0.10644   0.60266        -0.1139    
H1817  H        H_     0.69298   0.04473   0.55668         0.1382    
H1818  H        H_     0.55702   0.08027   0.69332         0.1382    
H1819  H        H_     0.68709   0.02345   0.69079         0.1093    
H1820  H        H_     0.56291   0.10155   0.55921         0.1093    
H1821  H        H_     0.60566   0.08336   0.55797         0.1478    
H1822  H        H_     0.64434   0.04164   0.69203         0.1478    
H1823  H        H_     0.64771   0.06089   0.55403         0.1419    
H1824  H        H_     0.60229   0.06411   0.69598         0.1419    
C1825  C        C_2     0.55113   0.16427   0.53632        -0.1076    
C1826  C        C_2     0.69887   0.21073   0.71367        -0.1076    
C1827  C        C_2    0.55437   0.15259   0.71268        -0.1292    
C1828  C        C_2    0.69564   0.22241   0.53731        -0.1292    
C1829  C        C_2    0.56787   0.16539   0.74894         0.0449    
C1830  C        C_2    0.68213   0.20961   0.50105         0.0449    
C1831  C        C_R    0.59625   0.17844   0.74790         0.0434    
C1832  C        C_R    0.65375   0.19656   0.50210         0.0434    
C1833  C        C_R    0.63711   0.19919   0.54054        -0.1564    
C1834  C        C_R    0.61290   0.17581   0.70946        -0.1564    
C1835  C        C_R    0.60835   0.19013   0.53844        -0.1852    
C1836  C        C_R    0.64165   0.18487   0.71156        -0.1852    
N1837  N        N_3    0.52728   0.15078   0.52316        -0.2672    
N1838  N        N_3    0.72272   0.22422   0.72683        -0.2672    
N1839  N        N_3    0.52928   0.14356   0.72765        -0.1139    
N1840  N        N_3    0.72072   0.23144   0.52235        -0.1139    
H1841  H        H_     0.55536   0.17162   0.56635         0.1382    
H1842  H        H_     0.69464   0.20338   0.68364         0.1382    
H1843  H        H_     0.56125   0.15035   0.68224         0.1093    
H1844  H        H_     0.68875   0.22465   0.56775         0.1093    
H1845  H        H_     0.64538   0.20718   0.56825         0.1478    
H1846  H        H_     0.60462   0.16782   0.68175         0.1478    
H1847  H        H_     0.59698   0.19193   0.56471         0.1419    
H1848  H        H_     0.65302   0.18307   0.68529         0.1419    
C1849  C        C_2     0.94751   0.16273   0.58708        -0.1076    
C1850  C        C_2     0.80249   0.21228   0.66293        -0.1076    
C1851  C        C_2    0.94428   0.15104   0.66072        -0.1292    
C1852  C        C_2    0.80572   0.22396   0.58929        -0.1292    
C1853  C        C_2    0.92993   0.16289   0.62347         0.0449    
C1854  C        C_2    0.82007   0.21211   0.62654         0.0449    
C1855  C        C_R    0.89998   0.17416   0.62266         0.0434    
C1856  C        C_R    0.85002   0.20085   0.62734         0.0434    
C1857  C        C_R    0.86351   0.19989   0.58518        -0.1564    
C1858  C        C_R    0.88649   0.17511   0.66482        -0.1564    
C1859  C        C_R    0.88849   0.18654   0.58284        -0.1852    
C1860  C        C_R    0.86151   0.18846   0.66716        -0.1852    
N1861  N        N_3    0.97272   0.15078   0.60184        -0.2672    
N1862  N        N_3    0.77728   0.22422   0.64817        -0.2672    
N1863  N        N_3    0.97072   0.14356   0.64735        -0.1139    
N1864  N        N_3    0.77928   0.23144   0.60266        -0.1139    
H1865  H        H_     0.94298   0.16973   0.55668         0.1382    
H1866  H        H_     0.80702   0.20527   0.69332         0.1382    
H1867  H        H_     0.93709   0.14845   0.69079         0.1093    
H1868  H        H_     0.81291   0.22655   0.55921         0.1093    
H1869  H        H_     0.85566   0.20836   0.55797         0.1478    
H1870  H        H_     0.89435   0.16664   0.69203         0.1478    
H1871  H        H_     0.89771   0.18589   0.55403         0.1419    
H1872  H        H_     0.85229   0.18911   0.69598         0.1419    
C1873  C        C_2     0.94751   0.08727   0.71208        -0.1076    
C1874  C        C_2     0.80249   0.03773   0.53793        -0.1076    
C1875  C        C_2    0.94428   0.09896   0.53572        -0.1292    
C1876  C        C_2    0.80572   0.02604   0.71429        -0.1292    
C1877  C        C_2    0.92993   0.08711   0.74847         0.0449    
C1878  C        C_2    0.82007   0.03789   0.50154         0.0449    
C1879  C        C_R    0.89998   0.07585   0.74766         0.0434    
C1880  C        C_R    0.85002   0.04915   0.50234         0.0434    
C1881  C        C_R    0.86351   0.05011   0.71018        -0.1564    
C1882  C        C_R    0.88649   0.07489   0.53982        -0.1564    
C1883  C        C_R    0.88849   0.06346   0.70784        -0.1852    
C1884  C        C_R    0.86151   0.06154   0.54216        -0.1852    
N1885  N        N_3    0.97272   0.09922   0.72684        -0.2672    
N1886  N        N_3    0.77728   0.02578   0.52317        -0.2672    
N1887  N        N_3    0.97072   0.10644   0.52235        -0.1139    
N1888  N        N_3    0.77928   0.01856   0.72765        -0.1139    
H1889  H        H_     0.94298   0.08027   0.68168         0.1382    
H1890  H        H_     0.80702   0.04473   0.56832         0.1382    
H1891  H        H_     0.93709   0.10155   0.56579         0.1093    
H1892  H        H_     0.81291   0.02345   0.68421         0.1093    
H1893  H        H_     0.85566   0.04164   0.68297         0.1478    
H1894  H        H_     0.89435   0.08336   0.56703         0.1478    
H1895  H        H_     0.89771   0.06411   0.67903         0.1419    
H1896  H        H_     0.85229   0.06089   0.57098         0.1419    
Co1897 Co      Zn3+2   0.50000   0.12024   0.68750          0.668    
Co1898 Co      Zn3+2   0.50000   0.12976   0.56250          0.668    
Co1899 Co      Zn3+2   0.75000   0.24524   0.68750          0.668    
Co1900 Co      Zn3+2   0.75000   0.00476   0.56250          0.668    
C1901  C        C_2     0.69751   0.03773   0.83708        -0.1076    
C1902  C        C_2     0.55249   0.08727   0.91293        -0.1076    
C1903  C        C_2    0.69428   0.02604   0.91072        -0.1292    
C1904  C        C_2    0.55572   0.09896   0.83929        -0.1292    
C1905  C        C_2    0.67993   0.03789   0.87347         0.0449    
C1906  C        C_2    0.57007   0.08711   0.87654         0.0449    
C1907  C        C_R    0.64998   0.04915   0.87266         0.0434    
C1908  C        C_R    0.60002   0.07585   0.87734         0.0434    
C1909  C        C_R    0.61351   0.07489   0.83518        -0.1564    
C1910  C        C_R    0.63649   0.05011   0.91482        -0.1564    
C1911  C        C_R    0.63849   0.06154   0.83284        -0.1852    
C1912  C        C_R    0.61151   0.06346   0.91716        -0.1852    
N1913  N        N_3    0.72272   0.02578   0.85184        -0.2672    
N1914  N        N_3    0.52728   0.09922   0.89817        -0.2672    
N1915  N        N_3    0.72072   0.01856   0.89735        -0.1139    
N1916  N        N_3    0.52928   0.10644   0.85265        -0.1139    
H1917  H        H_     0.69298   0.04473   0.80668         0.1382    
H1918  H        H_     0.55702   0.08027   0.94332         0.1382    
H1919  H        H_     0.68709   0.02345   0.94079         0.1093    
H1920  H        H_     0.56291   0.10155   0.80921         0.1093    
H1921  H        H_     0.60566   0.08336   0.80797         0.1478    
H1922  H        H_     0.64434   0.04164   0.94203         0.1478    
H1923  H        H_     0.64771   0.06089   0.80403         0.1419    
H1924  H        H_     0.60229   0.06411   0.94598         0.1419    
C1925  C        C_2     0.55113   0.16427   0.78632        -0.1076    
C1926  C        C_2     0.69887   0.21073   0.96367        -0.1076    
C1927  C        C_2    0.55437   0.15259   0.96268        -0.1292    
C1928  C        C_2    0.69564   0.22241   0.78731        -0.1292    
C1929  C        C_2    0.56787   0.16539   0.99894         0.0449    
C1930  C        C_2    0.68213   0.20961   0.75105         0.0449    
C1931  C        C_R    0.59625   0.17844   0.99790         0.0434    
C1932  C        C_R    0.65375   0.19656   0.75210         0.0434    
C1933  C        C_R    0.63711   0.19919   0.79054        -0.1564    
C1934  C        C_R    0.61290   0.17581   0.95946        -0.1564    
C1935  C        C_R    0.60835   0.19013   0.78844        -0.1852    
C1936  C        C_R    0.64165   0.18487   0.96156        -0.1852    
N1937  N        N_3    0.52728   0.15078   0.77316        -0.2672    
N1938  N        N_3    0.72272   0.22422   0.97683        -0.2672    
N1939  N        N_3    0.52928   0.14356   0.97765        -0.1139    
N1940  N        N_3    0.72072   0.23144   0.77234        -0.1139    
H1941  H        H_     0.55536   0.17162   0.81635         0.1382    
H1942  H        H_     0.69464   0.20338   0.93364         0.1382    
H1943  H        H_     0.56125   0.15035   0.93224         0.1093    
H1944  H        H_     0.68875   0.22465   0.81775         0.1093    
H1945  H        H_     0.64538   0.20718   0.81825         0.1478    
H1946  H        H_     0.60462   0.16782   0.93175         0.1478    
H1947  H        H_     0.59698   0.19193   0.81471         0.1419    
H1948  H        H_     0.65302   0.18307   0.93529         0.1419    
C1949  C        C_2     0.94751   0.16273   0.83708        -0.1076    
C1950  C        C_2     0.80249   0.21228   0.91293        -0.1076    
C1951  C        C_2    0.94428   0.15104   0.91072        -0.1292    
C1952  C        C_2    0.80572   0.22396   0.83929        -0.1292    
C1953  C        C_2    0.92993   0.16289   0.87347         0.0449    
C1954  C        C_2    0.82007   0.21211   0.87654         0.0449    
C1955  C        C_R    0.89998   0.17416   0.87266         0.0434    
C1956  C        C_R    0.85002   0.20085   0.87734         0.0434    
C1957  C        C_R    0.86351   0.19989   0.83518        -0.1564    
C1958  C        C_R    0.88649   0.17511   0.91482        -0.1564    
C1959  C        C_R    0.88849   0.18654   0.83284        -0.1852    
C1960  C        C_R    0.86151   0.18846   0.91716        -0.1852    
N1961  N        N_3    0.97272   0.15078   0.85184        -0.2672    
N1962  N        N_3    0.77728   0.22422   0.89817        -0.2672    
N1963  N        N_3    0.97072   0.14356   0.89735        -0.1139    
N1964  N        N_3    0.77928   0.23144   0.85265        -0.1139    
H1965  H        H_     0.94298   0.16973   0.80668         0.1382    
H1966  H        H_     0.80702   0.20527   0.94332         0.1382    
H1967  H        H_     0.93709   0.14845   0.94079         0.1093    
H1968  H        H_     0.81291   0.22655   0.80921         0.1093    
H1969  H        H_     0.85566   0.20836   0.80797         0.1478    
H1970  H        H_     0.89435   0.16664   0.94203         0.1478    
H1971  H        H_     0.89771   0.18589   0.80403         0.1419    
H1972  H        H_     0.85229   0.18911   0.94598         0.1419    
C1973  C        C_2     0.94751   0.08727   0.96208        -0.1076    
C1974  C        C_2     0.80249   0.03773   0.78793        -0.1076    
C1975  C        C_2    0.94428   0.09896   0.78572        -0.1292    
C1976  C        C_2    0.80572   0.02604   0.96429        -0.1292    
C1977  C        C_2    0.92993   0.08711   0.99847         0.0449    
C1978  C        C_2    0.82007   0.03789   0.75154         0.0449    
C1979  C        C_R    0.89998   0.07585   0.99766         0.0434    
C1980  C        C_R    0.85002   0.04915   0.75234         0.0434    
C1981  C        C_R    0.86351   0.05011   0.96018        -0.1564    
C1982  C        C_R    0.88649   0.07489   0.78982        -0.1564    
C1983  C        C_R    0.88849   0.06346   0.95784        -0.1852    
C1984  C        C_R    0.86151   0.06154   0.79216        -0.1852    
N1985  N        N_3    0.97272   0.09922   0.97684        -0.2672    
N1986  N        N_3    0.77728   0.02578   0.77317        -0.2672    
N1987  N        N_3    0.97072   0.10644   0.77235        -0.1139    
N1988  N        N_3    0.77928   0.01856   0.97765        -0.1139    
H1989  H        H_     0.94298   0.08027   0.93168         0.1382    
H1990  H        H_     0.80702   0.04473   0.81832         0.1382    
H1991  H        H_     0.93709   0.10155   0.81579         0.1093    
H1992  H        H_     0.81291   0.02345   0.93421         0.1093    
H1993  H        H_     0.85566   0.04164   0.93297         0.1478    
H1994  H        H_     0.89435   0.08336   0.81703         0.1478    
H1995  H        H_     0.89771   0.06411   0.92903         0.1419    
H1996  H        H_     0.85229   0.06089   0.82098         0.1419    
Co1997 Co      Zn3+2   0.50000   0.12024   0.93750          0.668    
Co1998 Co      Zn3+2   0.50000   0.12976   0.81250          0.668    
Co1999 Co      Zn3+2   0.75000   0.24524   0.93750          0.668    
Co2000 Co      Zn3+2   0.75000   0.00476   0.81250          0.668    
C2001  C        C_2     0.69751   0.28773   0.08708        -0.1076    
C2002  C        C_2     0.55249   0.33727   0.16293        -0.1076    
C2003  C        C_2    0.69428   0.27604   0.16072        -0.1292    
C2004  C        C_2    0.55572   0.34896   0.08929        -0.1292    
C2005  C        C_2    0.67993   0.28789   0.12347         0.0449    
C2006  C        C_2    0.57007   0.33711   0.12654         0.0449    
C2007  C        C_R    0.64998   0.29916   0.12266         0.0434    
C2008  C        C_R    0.60002   0.32585   0.12734         0.0434    
C2009  C        C_R    0.61351   0.32489   0.08518        -0.1564    
C2010  C        C_R    0.63649   0.30011   0.16482        -0.1564    
C2011  C        C_R    0.63849   0.31154   0.08284        -0.1852    
C2012  C        C_R    0.61151   0.31346   0.16716        -0.1852    
N2013  N        N_3    0.72272   0.27578   0.10184        -0.2672    
N2014  N        N_3    0.52728   0.34922   0.14817        -0.2672    
N2015  N        N_3    0.72072   0.26856   0.14735        -0.1139    
N2016  N        N_3    0.52928   0.35644   0.10266        -0.1139    
H2017  H        H_     0.69298   0.29473   0.05668         0.1382    
H2018  H        H_     0.55702   0.33027   0.19332         0.1382    
H2019  H        H_     0.68709   0.27345   0.19079         0.1093    
H2020  H        H_     0.56291   0.35155   0.05921         0.1093    
H2021  H        H_     0.60566   0.33336   0.05797         0.1478    
H2022  H        H_     0.64434   0.29164   0.19203         0.1478    
H2023  H        H_     0.64771   0.31089   0.05403         0.1419    
H2024  H        H_     0.60229   0.31411   0.19598         0.1419    
C2025  C        C_2     0.55113   0.41427   0.03632        -0.1076    
C2026  C        C_2     0.69887   0.46073   0.21367        -0.1076    
C2027  C        C_2    0.55437   0.40259   0.21268        -0.1292    
C2028  C        C_2    0.69564   0.47241   0.03731        -0.1292    
C2029  C        C_2    0.56787   0.41539   0.24894         0.0449    
C2030  C        C_2    0.68213   0.45961   0.00105         0.0449    
C2031  C        C_R    0.59625   0.42844   0.24790         0.0434    
C2032  C        C_R    0.65375   0.44656   0.00210         0.0434    
C2033  C        C_R    0.63711   0.44919   0.04054        -0.1564    
C2034  C        C_R    0.61290   0.42581   0.20946        -0.1564    
C2035  C        C_R    0.60835   0.44013   0.03844        -0.1852    
C2036  C        C_R    0.64165   0.43487   0.21156        -0.1852    
N2037  N        N_3    0.52728   0.40078   0.02316        -0.2672    
N2038  N        N_3    0.72272   0.47422   0.22683        -0.2672    
N2039  N        N_3    0.52928   0.39356   0.22765        -0.1139    
N2040  N        N_3    0.72072   0.48144   0.02235        -0.1139    
H2041  H        H_     0.55536   0.42162   0.06635         0.1382    
H2042  H        H_     0.69464   0.45338   0.18364         0.1382    
H2043  H        H_     0.56125   0.40035   0.18224         0.1093    
H2044  H        H_     0.68875   0.47465   0.06775         0.1093    
H2045  H        H_     0.64538   0.45718   0.06825         0.1478    
H2046  H        H_     0.60462   0.41782   0.18175         0.1478    
H2047  H        H_     0.59698   0.44193   0.06471         0.1419    
H2048  H        H_     0.65302   0.43307   0.18529         0.1419    
C2049  C        C_2     0.94751   0.41273   0.08708        -0.1076    
C2050  C        C_2     0.80249   0.46227   0.16293        -0.1076    
C2051  C        C_2    0.94428   0.40104   0.16072        -0.1292    
C2052  C        C_2    0.80572   0.47396   0.08929        -0.1292    
C2053  C        C_2    0.92993   0.41289   0.12347         0.0449    
C2054  C        C_2    0.82007   0.46211   0.12654         0.0449    
C2055  C        C_R    0.89998   0.42416   0.12266         0.0434    
C2056  C        C_R    0.85002   0.45085   0.12734         0.0434    
C2057  C        C_R    0.86351   0.44989   0.08518        -0.1564    
C2058  C        C_R    0.88649   0.42511   0.16482        -0.1564    
C2059  C        C_R    0.88849   0.43654   0.08284        -0.1852    
C2060  C        C_R    0.86151   0.43846   0.16716        -0.1852    
N2061  N        N_3    0.97272   0.40078   0.10184        -0.2672    
N2062  N        N_3    0.77728   0.47422   0.14817        -0.2672    
N2063  N        N_3    0.97072   0.39356   0.14735        -0.1139    
N2064  N        N_3    0.77928   0.48144   0.10266        -0.1139    
H2065  H        H_     0.94298   0.41973   0.05668         0.1382    
H2066  H        H_     0.80702   0.45527   0.19332         0.1382    
H2067  H        H_     0.93709   0.39845   0.19079         0.1093    
H2068  H        H_     0.81291   0.47655   0.05921         0.1093    
H2069  H        H_     0.85566   0.45836   0.05797         0.1478    
H2070  H        H_     0.89435   0.41664   0.19203         0.1478    
H2071  H        H_     0.89771   0.43589   0.05403         0.1419    
H2072  H        H_     0.85229   0.43911   0.19598         0.1419    
C2073  C        C_2     0.94751   0.33727   0.21208        -0.1076    
C2074  C        C_2     0.80249   0.28773   0.03793        -0.1076    
C2075  C        C_2    0.94428   0.34896   0.03572        -0.1292    
C2076  C        C_2    0.80572   0.27604   0.21429        -0.1292    
C2077  C        C_2    0.92993   0.33711   0.24847         0.0449    
C2078  C        C_2    0.82007   0.28789   0.00154         0.0449    
C2079  C        C_R    0.89998   0.32585   0.24766         0.0434    
C2080  C        C_R    0.85002   0.29915   0.00234         0.0434    
C2081  C        C_R    0.86351   0.30011   0.21018        -0.1564    
C2082  C        C_R    0.88649   0.32489   0.03982        -0.1564    
C2083  C        C_R    0.88849   0.31346   0.20784        -0.1852    
C2084  C        C_R    0.86151   0.31154   0.04216        -0.1852    
N2085  N        N_3    0.97272   0.34922   0.22684        -0.2672    
N2086  N        N_3    0.77728   0.27578   0.02317        -0.2672    
N2087  N        N_3    0.97072   0.35644   0.02235        -0.1139    
N2088  N        N_3    0.77928   0.26856   0.22765        -0.1139    
H2089  H        H_     0.94298   0.33027   0.18168         0.1382    
H2090  H        H_     0.80702   0.29473   0.06832         0.1382    
H2091  H        H_     0.93709   0.35155   0.06579         0.1093    
H2092  H        H_     0.81291   0.27345   0.18421         0.1093    
H2093  H        H_     0.85566   0.29164   0.18297         0.1478    
H2094  H        H_     0.89435   0.33336   0.06703         0.1478    
H2095  H        H_     0.89771   0.31411   0.17903         0.1419    
H2096  H        H_     0.85229   0.31089   0.07098         0.1419    
Co2097 Co      Zn3+2   0.50000   0.37024   0.18750          0.668    
Co2098 Co      Zn3+2   0.50000   0.37976   0.06250          0.668    
Co2099 Co      Zn3+2   0.75000   0.49524   0.18750          0.668    
Co2100 Co      Zn3+2   0.75000   0.25476   0.06250          0.668    
C2101  C        C_2     0.69751   0.28773   0.33708        -0.1076    
C2102  C        C_2     0.55249   0.33727   0.41293        -0.1076    
C2103  C        C_2    0.69428   0.27604   0.41072        -0.1292    
C2104  C        C_2    0.55572   0.34896   0.33929        -0.1292    
C2105  C        C_2    0.67993   0.28789   0.37347         0.0449    
C2106  C        C_2    0.57007   0.33711   0.37654         0.0449    
C2107  C        C_R    0.64998   0.29916   0.37266         0.0434    
C2108  C        C_R    0.60002   0.32585   0.37734         0.0434    
C2109  C        C_R    0.61351   0.32489   0.33518        -0.1564    
C2110  C        C_R    0.63649   0.30011   0.41482        -0.1564    
C2111  C        C_R    0.63849   0.31154   0.33284        -0.1852    
C2112  C        C_R    0.61151   0.31346   0.41716        -0.1852    
N2113  N        N_3    0.72272   0.27578   0.35184        -0.2672    
N2114  N        N_3    0.52728   0.34922   0.39817        -0.2672    
N2115  N        N_3    0.72072   0.26856   0.39735        -0.1139    
N2116  N        N_3    0.52928   0.35644   0.35265        -0.1139    
H2117  H        H_     0.69298   0.29473   0.30668         0.1382    
H2118  H        H_     0.55702   0.33027   0.44332         0.1382    
H2119  H        H_     0.68709   0.27345   0.44079         0.1093    
H2120  H        H_     0.56291   0.35155   0.30921         0.1093    
H2121  H        H_     0.60566   0.33336   0.30797         0.1478    
H2122  H        H_     0.64434   0.29164   0.44203         0.1478    
H2123  H        H_     0.64771   0.31089   0.30403         0.1419    
H2124  H        H_     0.60229   0.31411   0.44598         0.1419    
C2125  C        C_2     0.55113   0.41427   0.28632        -0.1076    
C2126  C        C_2     0.69887   0.46073   0.46367        -0.1076    
C2127  C        C_2    0.55437   0.40259   0.46268        -0.1292    
C2128  C        C_2    0.69564   0.47241   0.28731        -0.1292    
C2129  C        C_2    0.56787   0.41539   0.49894         0.0449    
C2130  C        C_2    0.68213   0.45961   0.25105         0.0449    
C2131  C        C_R    0.59625   0.42844   0.49790         0.0434    
C2132  C        C_R    0.65375   0.44656   0.25210         0.0434    
C2133  C        C_R    0.63711   0.44919   0.29054        -0.1564    
C2134  C        C_R    0.61290   0.42581   0.45946        -0.1564    
C2135  C        C_R    0.60835   0.44013   0.28844        -0.1852    
C2136  C        C_R    0.64165   0.43487   0.46156        -0.1852    
N2137  N        N_3    0.52728   0.40078   0.27316        -0.2672    
N2138  N        N_3    0.72272   0.47422   0.47683        -0.2672    
N2139  N        N_3    0.52928   0.39356   0.47765        -0.1139    
N2140  N        N_3    0.72072   0.48144   0.27234        -0.1139    
H2141  H        H_     0.55536   0.42162   0.31635         0.1382    
H2142  H        H_     0.69464   0.45338   0.43364         0.1382    
H2143  H        H_     0.56125   0.40035   0.43224         0.1093    
H2144  H        H_     0.68875   0.47465   0.31775         0.1093    
H2145  H        H_     0.64538   0.45718   0.31825         0.1478    
H2146  H        H_     0.60462   0.41782   0.43175         0.1478    
H2147  H        H_     0.59698   0.44193   0.31471         0.1419    
H2148  H        H_     0.65302   0.43307   0.43529         0.1419    
C2149  C        C_2     0.94751   0.41273   0.33708        -0.1076    
C2150  C        C_2     0.80249   0.46227   0.41293        -0.1076    
C2151  C        C_2    0.94428   0.40104   0.41072        -0.1292    
C2152  C        C_2    0.80572   0.47396   0.33929        -0.1292    
C2153  C        C_2    0.92993   0.41289   0.37347         0.0449    
C2154  C        C_2    0.82007   0.46211   0.37654         0.0449    
C2155  C        C_R    0.89998   0.42416   0.37266         0.0434    
C2156  C        C_R    0.85002   0.45085   0.37734         0.0434    
C2157  C        C_R    0.86351   0.44989   0.33518        -0.1564    
C2158  C        C_R    0.88649   0.42511   0.41482        -0.1564    
C2159  C        C_R    0.88849   0.43654   0.33284        -0.1852    
C2160  C        C_R    0.86151   0.43846   0.41716        -0.1852    
N2161  N        N_3    0.97272   0.40078   0.35184        -0.2672    
N2162  N        N_3    0.77728   0.47422   0.39817        -0.2672    
N2163  N        N_3    0.97072   0.39356   0.39735        -0.1139    
N2164  N        N_3    0.77928   0.48144   0.35265        -0.1139    
H2165  H        H_     0.94298   0.41973   0.30668         0.1382    
H2166  H        H_     0.80702   0.45527   0.44332         0.1382    
H2167  H        H_     0.93709   0.39845   0.44079         0.1093    
H2168  H        H_     0.81291   0.47655   0.30921         0.1093    
H2169  H        H_     0.85566   0.45836   0.30797         0.1478    
H2170  H        H_     0.89435   0.41664   0.44203         0.1478    
H2171  H        H_     0.89771   0.43589   0.30403         0.1419    
H2172  H        H_     0.85229   0.43911   0.44598         0.1419    
C2173  C        C_2     0.94751   0.33727   0.46208        -0.1076    
C2174  C        C_2     0.80249   0.28773   0.28793        -0.1076    
C2175  C        C_2    0.94428   0.34896   0.28572        -0.1292    
C2176  C        C_2    0.80572   0.27604   0.46429        -0.1292    
C2177  C        C_2    0.92993   0.33711   0.49847         0.0449    
C2178  C        C_2    0.82007   0.28789   0.25154         0.0449    
C2179  C        C_R    0.89998   0.32585   0.49766         0.0434    
C2180  C        C_R    0.85002   0.29915   0.25234         0.0434    
C2181  C        C_R    0.86351   0.30011   0.46018        -0.1564    
C2182  C        C_R    0.88649   0.32489   0.28982        -0.1564    
C2183  C        C_R    0.88849   0.31346   0.45784        -0.1852    
C2184  C        C_R    0.86151   0.31154   0.29216        -0.1852    
N2185  N        N_3    0.97272   0.34922   0.47684        -0.2672    
N2186  N        N_3    0.77728   0.27578   0.27317        -0.2672    
N2187  N        N_3    0.97072   0.35644   0.27235        -0.1139    
N2188  N        N_3    0.77928   0.26856   0.47765        -0.1139    
H2189  H        H_     0.94298   0.33027   0.43168         0.1382    
H2190  H        H_     0.80702   0.29473   0.31832         0.1382    
H2191  H        H_     0.93709   0.35155   0.31579         0.1093    
H2192  H        H_     0.81291   0.27345   0.43421         0.1093    
H2193  H        H_     0.85566   0.29164   0.43297         0.1478    
H2194  H        H_     0.89435   0.33336   0.31703         0.1478    
H2195  H        H_     0.89771   0.31411   0.42903         0.1419    
H2196  H        H_     0.85229   0.31089   0.32098         0.1419    
Co2197 Co      Zn3+2   0.50000   0.37024   0.43750          0.668    
Co2198 Co      Zn3+2   0.50000   0.37976   0.31250          0.668    
Co2199 Co      Zn3+2   0.75000   0.49524   0.43750          0.668    
Co2200 Co      Zn3+2   0.75000   0.25476   0.31250          0.668    
C2201  C        C_2     0.69751   0.28773   0.58708        -0.1076    
C2202  C        C_2     0.55249   0.33727   0.66293        -0.1076    
C2203  C        C_2    0.69428   0.27604   0.66072        -0.1292    
C2204  C        C_2    0.55572   0.34896   0.58929        -0.1292    
C2205  C        C_2    0.67993   0.28789   0.62347         0.0449    
C2206  C        C_2    0.57007   0.33711   0.62654         0.0449    
C2207  C        C_R    0.64998   0.29916   0.62266         0.0434    
C2208  C        C_R    0.60002   0.32585   0.62734         0.0434    
C2209  C        C_R    0.61351   0.32489   0.58518        -0.1564    
C2210  C        C_R    0.63649   0.30011   0.66482        -0.1564    
C2211  C        C_R    0.63849   0.31154   0.58284        -0.1852    
C2212  C        C_R    0.61151   0.31346   0.66716        -0.1852    
N2213  N        N_3    0.72272   0.27578   0.60184        -0.2672    
N2214  N        N_3    0.52728   0.34922   0.64817        -0.2672    
N2215  N        N_3    0.72072   0.26856   0.64735        -0.1139    
N2216  N        N_3    0.52928   0.35644   0.60266        -0.1139    
H2217  H        H_     0.69298   0.29473   0.55668         0.1382    
H2218  H        H_     0.55702   0.33027   0.69332         0.1382    
H2219  H        H_     0.68709   0.27345   0.69079         0.1093    
H2220  H        H_     0.56291   0.35155   0.55921         0.1093    
H2221  H        H_     0.60566   0.33336   0.55797         0.1478    
H2222  H        H_     0.64434   0.29164   0.69203         0.1478    
H2223  H        H_     0.64771   0.31089   0.55403         0.1419    
H2224  H        H_     0.60229   0.31411   0.69598         0.1419    
C2225  C        C_2     0.55113   0.41427   0.53632        -0.1076    
C2226  C        C_2     0.69887   0.46073   0.71367        -0.1076    
C2227  C        C_2    0.55437   0.40259   0.71268        -0.1292    
C2228  C        C_2    0.69564   0.47241   0.53731        -0.1292    
C2229  C        C_2    0.56787   0.41539   0.74894         0.0449    
C2230  C        C_2    0.68213   0.45961   0.50105         0.0449    
C2231  C        C_R    0.59625   0.42844   0.74790         0.0434    
C2232  C        C_R    0.65375   0.44656   0.50210         0.0434    
C2233  C        C_R    0.63711   0.44919   0.54054        -0.1564    
C2234  C        C_R    0.61290   0.42581   0.70946        -0.1564    
C2235  C        C_R    0.60835   0.44013   0.53844        -0.1852    
C2236  C        C_R    0.64165   0.43487   0.71156        -0.1852    
N2237  N        N_3    0.52728   0.40078   0.52316        -0.2672    
N2238  N        N_3    0.72272   0.47422   0.72683        -0.2672    
N2239  N        N_3    0.52928   0.39356   0.72765        -0.1139    
N2240  N        N_3    0.72072   0.48144   0.52235        -0.1139    
H2241  H        H_     0.55536   0.42162   0.56635         0.1382    
H2242  H        H_     0.69464   0.45338   0.68364         0.1382    
H2243  H        H_     0.56125   0.40035   0.68224         0.1093    
H2244  H        H_     0.68875   0.47465   0.56775         0.1093    
H2245  H        H_     0.64538   0.45718   0.56825         0.1478    
H2246  H        H_     0.60462   0.41782   0.68175         0.1478    
H2247  H        H_     0.59698   0.44193   0.56471         0.1419    
H2248  H        H_     0.65302   0.43307   0.68529         0.1419    
C2249  C        C_2     0.94751   0.41273   0.58708        -0.1076    
C2250  C        C_2     0.80249   0.46227   0.66293        -0.1076    
C2251  C        C_2    0.94428   0.40104   0.66072        -0.1292    
C2252  C        C_2    0.80572   0.47396   0.58929        -0.1292    
C2253  C        C_2    0.92993   0.41289   0.62347         0.0449    
C2254  C        C_2    0.82007   0.46211   0.62654         0.0449    
C2255  C        C_R    0.89998   0.42416   0.62266         0.0434    
C2256  C        C_R    0.85002   0.45085   0.62734         0.0434    
C2257  C        C_R    0.86351   0.44989   0.58518        -0.1564    
C2258  C        C_R    0.88649   0.42511   0.66482        -0.1564    
C2259  C        C_R    0.88849   0.43654   0.58284        -0.1852    
C2260  C        C_R    0.86151   0.43846   0.66716        -0.1852    
N2261  N        N_3    0.97272   0.40078   0.60184        -0.2672    
N2262  N        N_3    0.77728   0.47422   0.64817        -0.2672    
N2263  N        N_3    0.97072   0.39356   0.64735        -0.1139    
N2264  N        N_3    0.77928   0.48144   0.60266        -0.1139    
H2265  H        H_     0.94298   0.41973   0.55668         0.1382    
H2266  H        H_     0.80702   0.45527   0.69332         0.1382    
H2267  H        H_     0.93709   0.39845   0.69079         0.1093    
H2268  H        H_     0.81291   0.47655   0.55921         0.1093    
H2269  H        H_     0.85566   0.45836   0.55797         0.1478    
H2270  H        H_     0.89435   0.41664   0.69203         0.1478    
H2271  H        H_     0.89771   0.43589   0.55403         0.1419    
H2272  H        H_     0.85229   0.43911   0.69598         0.1419    
C2273  C        C_2     0.94751   0.33727   0.71208        -0.1076    
C2274  C        C_2     0.80249   0.28773   0.53793        -0.1076    
C2275  C        C_2    0.94428   0.34896   0.53572        -0.1292    
C2276  C        C_2    0.80572   0.27604   0.71429        -0.1292    
C2277  C        C_2    0.92993   0.33711   0.74847         0.0449    
C2278  C        C_2    0.82007   0.28789   0.50154         0.0449    
C2279  C        C_R    0.89998   0.32585   0.74766         0.0434    
C2280  C        C_R    0.85002   0.29915   0.50234         0.0434    
C2281  C        C_R    0.86351   0.30011   0.71018        -0.1564    
C2282  C        C_R    0.88649   0.32489   0.53982        -0.1564    
C2283  C        C_R    0.88849   0.31346   0.70784        -0.1852    
C2284  C        C_R    0.86151   0.31154   0.54216        -0.1852    
N2285  N        N_3    0.97272   0.34922   0.72684        -0.2672    
N2286  N        N_3    0.77728   0.27578   0.52317        -0.2672    
N2287  N        N_3    0.97072   0.35644   0.52235        -0.1139    
N2288  N        N_3    0.77928   0.26856   0.72765        -0.1139    
H2289  H        H_     0.94298   0.33027   0.68168         0.1382    
H2290  H        H_     0.80702   0.29473   0.56832         0.1382    
H2291  H        H_     0.93709   0.35155   0.56579         0.1093    
H2292  H        H_     0.81291   0.27345   0.68421         0.1093    
H2293  H        H_     0.85566   0.29164   0.68297         0.1478    
H2294  H        H_     0.89435   0.33336   0.56703         0.1478    
H2295  H        H_     0.89771   0.31411   0.67903         0.1419    
H2296  H        H_     0.85229   0.31089   0.57098         0.1419    
Co2297 Co      Zn3+2   0.50000   0.37024   0.68750          0.668    
Co2298 Co      Zn3+2   0.50000   0.37976   0.56250          0.668    
Co2299 Co      Zn3+2   0.75000   0.49524   0.68750          0.668    
Co2300 Co      Zn3+2   0.75000   0.25476   0.56250          0.668    
C2301  C        C_2     0.69751   0.28773   0.83708        -0.1076    
C2302  C        C_2     0.55249   0.33727   0.91293        -0.1076    
C2303  C        C_2    0.69428   0.27604   0.91072        -0.1292    
C2304  C        C_2    0.55572   0.34896   0.83929        -0.1292    
C2305  C        C_2    0.67993   0.28789   0.87347         0.0449    
C2306  C        C_2    0.57007   0.33711   0.87654         0.0449    
C2307  C        C_R    0.64998   0.29916   0.87266         0.0434    
C2308  C        C_R    0.60002   0.32585   0.87734         0.0434    
C2309  C        C_R    0.61351   0.32489   0.83518        -0.1564    
C2310  C        C_R    0.63649   0.30011   0.91482        -0.1564    
C2311  C        C_R    0.63849   0.31154   0.83284        -0.1852    
C2312  C        C_R    0.61151   0.31346   0.91716        -0.1852    
N2313  N        N_3    0.72272   0.27578   0.85184        -0.2672    
N2314  N        N_3    0.52728   0.34922   0.89817        -0.2672    
N2315  N        N_3    0.72072   0.26856   0.89735        -0.1139    
N2316  N        N_3    0.52928   0.35644   0.85265        -0.1139    
H2317  H        H_     0.69298   0.29473   0.80668         0.1382    
H2318  H        H_     0.55702   0.33027   0.94332         0.1382    
H2319  H        H_     0.68709   0.27345   0.94079         0.1093    
H2320  H        H_     0.56291   0.35155   0.80921         0.1093    
H2321  H        H_     0.60566   0.33336   0.80797         0.1478    
H2322  H        H_     0.64434   0.29164   0.94203         0.1478    
H2323  H        H_     0.64771   0.31089   0.80403         0.1419    
H2324  H        H_     0.60229   0.31411   0.94598         0.1419    
C2325  C        C_2     0.55113   0.41427   0.78632        -0.1076    
C2326  C        C_2     0.69887   0.46073   0.96367        -0.1076    
C2327  C        C_2    0.55437   0.40259   0.96268        -0.1292    
C2328  C        C_2    0.69564   0.47241   0.78731        -0.1292    
C2329  C        C_2    0.56787   0.41539   0.99894         0.0449    
C2330  C        C_2    0.68213   0.45961   0.75105         0.0449    
C2331  C        C_R    0.59625   0.42844   0.99790         0.0434    
C2332  C        C_R    0.65375   0.44656   0.75210         0.0434    
C2333  C        C_R    0.63711   0.44919   0.79054        -0.1564    
C2334  C        C_R    0.61290   0.42581   0.95946        -0.1564    
C2335  C        C_R    0.60835   0.44013   0.78844        -0.1852    
C2336  C        C_R    0.64165   0.43487   0.96156        -0.1852    
N2337  N        N_3    0.52728   0.40078   0.77316        -0.2672    
N2338  N        N_3    0.72272   0.47422   0.97683        -0.2672    
N2339  N        N_3    0.52928   0.39356   0.97765        -0.1139    
N2340  N        N_3    0.72072   0.48144   0.77234        -0.1139    
H2341  H        H_     0.55536   0.42162   0.81635         0.1382    
H2342  H        H_     0.69464   0.45338   0.93364         0.1382    
H2343  H        H_     0.56125   0.40035   0.93224         0.1093    
H2344  H        H_     0.68875   0.47465   0.81775         0.1093    
H2345  H        H_     0.64538   0.45718   0.81825         0.1478    
H2346  H        H_     0.60462   0.41782   0.93175         0.1478    
H2347  H        H_     0.59698   0.44193   0.81471         0.1419    
H2348  H        H_     0.65302   0.43307   0.93529         0.1419    
C2349  C        C_2     0.94751   0.41273   0.83708        -0.1076    
C2350  C        C_2     0.80249   0.46227   0.91293        -0.1076    
C2351  C        C_2    0.94428   0.40104   0.91072        -0.1292    
C2352  C        C_2    0.80572   0.47396   0.83929        -0.1292    
C2353  C        C_2    0.92993   0.41289   0.87347         0.0449    
C2354  C        C_2    0.82007   0.46211   0.87654         0.0449    
C2355  C        C_R    0.89998   0.42416   0.87266         0.0434    
C2356  C        C_R    0.85002   0.45085   0.87734         0.0434    
C2357  C        C_R    0.86351   0.44989   0.83518        -0.1564    
C2358  C        C_R    0.88649   0.42511   0.91482        -0.1564    
C2359  C        C_R    0.88849   0.43654   0.83284        -0.1852    
C2360  C        C_R    0.86151   0.43846   0.91716        -0.1852    
N2361  N        N_3    0.97272   0.40078   0.85184        -0.2672    
N2362  N        N_3    0.77728   0.47422   0.89817        -0.2672    
N2363  N        N_3    0.97072   0.39356   0.89735        -0.1139    
N2364  N        N_3    0.77928   0.48144   0.85265        -0.1139    
H2365  H        H_     0.94298   0.41973   0.80668         0.1382    
H2366  H        H_     0.80702   0.45527   0.94332         0.1382    
H2367  H        H_     0.93709   0.39845   0.94079         0.1093    
H2368  H        H_     0.81291   0.47655   0.80921         0.1093    
H2369  H        H_     0.85566   0.45836   0.80797         0.1478    
H2370  H        H_     0.89435   0.41664   0.94203         0.1478    
H2371  H        H_     0.89771   0.43589   0.80403         0.1419    
H2372  H        H_     0.85229   0.43911   0.94598         0.1419    
C2373  C        C_2     0.94751   0.33727   0.96208        -0.1076    
C2374  C        C_2     0.80249   0.28773   0.78793        -0.1076    
C2375  C        C_2    0.94428   0.34896   0.78572        -0.1292    
C2376  C        C_2    0.80572   0.27604   0.96429        -0.1292    
C2377  C        C_2    0.92993   0.33711   0.99847         0.0449    
C2378  C        C_2    0.82007   0.28789   0.75154         0.0449    
C2379  C        C_R    0.89998   0.32585   0.99766         0.0434    
C2380  C        C_R    0.85002   0.29915   0.75234         0.0434    
C2381  C        C_R    0.86351   0.30011   0.96018        -0.1564    
C2382  C        C_R    0.88649   0.32489   0.78982        -0.1564    
C2383  C        C_R    0.88849   0.31346   0.95784        -0.1852    
C2384  C        C_R    0.86151   0.31154   0.79216        -0.1852    
N2385  N        N_3    0.97272   0.34922   0.97684        -0.2672    
N2386  N        N_3    0.77728   0.27578   0.77317        -0.2672    
N2387  N        N_3    0.97072   0.35644   0.77235        -0.1139    
N2388  N        N_3    0.77928   0.26856   0.97765        -0.1139    
H2389  H        H_     0.94298   0.33027   0.93168         0.1382    
H2390  H        H_     0.80702   0.29473   0.81832         0.1382    
H2391  H        H_     0.93709   0.35155   0.81579         0.1093    
H2392  H        H_     0.81291   0.27345   0.93421         0.1093    
H2393  H        H_     0.85566   0.29164   0.93297         0.1478    
H2394  H        H_     0.89435   0.33336   0.81703         0.1478    
H2395  H        H_     0.89771   0.31411   0.92903         0.1419    
H2396  H        H_     0.85229   0.31089   0.82098         0.1419    
Co2397 Co      Zn3+2   0.50000   0.37024   0.93750          0.668    
Co2398 Co      Zn3+2   0.50000   0.37976   0.81250          0.668    
Co2399 Co      Zn3+2   0.75000   0.49524   0.93750          0.668    
Co2400 Co      Zn3+2   0.75000   0.25476   0.81250          0.668    
C2401  C        C_2     0.69751   0.53773   0.08708        -0.1076    
C2402  C        C_2     0.55249   0.58727   0.16293        -0.1076    
C2403  C        C_2    0.69428   0.52604   0.16072        -0.1292    
C2404  C        C_2    0.55572   0.59896   0.08929        -0.1292    
C2405  C        C_2    0.67993   0.53789   0.12347         0.0449    
C2406  C        C_2    0.57007   0.58711   0.12654         0.0449    
C2407  C        C_R    0.64998   0.54916   0.12266         0.0434    
C2408  C        C_R    0.60002   0.57585   0.12734         0.0434    
C2409  C        C_R    0.61351   0.57489   0.08518        -0.1564    
C2410  C        C_R    0.63649   0.55011   0.16482        -0.1564    
C2411  C        C_R    0.63849   0.56154   0.08284        -0.1852    
C2412  C        C_R    0.61151   0.56346   0.16716        -0.1852    
N2413  N        N_3    0.72272   0.52578   0.10184        -0.2672    
N2414  N        N_3    0.52728   0.59922   0.14817        -0.2672    
N2415  N        N_3    0.72072   0.51856   0.14735        -0.1139    
N2416  N        N_3    0.52928   0.60644   0.10266        -0.1139    
H2417  H        H_     0.69298   0.54473   0.05668         0.1382    
H2418  H        H_     0.55702   0.58027   0.19332         0.1382    
H2419  H        H_     0.68709   0.52345   0.19079         0.1093    
H2420  H        H_     0.56291   0.60155   0.05921         0.1093    
H2421  H        H_     0.60566   0.58336   0.05797         0.1478    
H2422  H        H_     0.64434   0.54164   0.19203         0.1478    
H2423  H        H_     0.64771   0.56089   0.05403         0.1419    
H2424  H        H_     0.60229   0.56411   0.19598         0.1419    
C2425  C        C_2     0.55113   0.66427   0.03632        -0.1076    
C2426  C        C_2     0.69887   0.71073   0.21367        -0.1076    
C2427  C        C_2    0.55437   0.65259   0.21268        -0.1292    
C2428  C        C_2    0.69564   0.72241   0.03731        -0.1292    
C2429  C        C_2    0.56787   0.66539   0.24894         0.0449    
C2430  C        C_2    0.68213   0.70961   0.00105         0.0449    
C2431  C        C_R    0.59625   0.67844   0.24790         0.0434    
C2432  C        C_R    0.65375   0.69656   0.00210         0.0434    
C2433  C        C_R    0.63711   0.69919   0.04054        -0.1564    
C2434  C        C_R    0.61290   0.67581   0.20946        -0.1564    
C2435  C        C_R    0.60835   0.69013   0.03844        -0.1852    
C2436  C        C_R    0.64165   0.68487   0.21156        -0.1852    
N2437  N        N_3    0.52728   0.65078   0.02316        -0.2672    
N2438  N        N_3    0.72272   0.72422   0.22683        -0.2672    
N2439  N        N_3    0.52928   0.64356   0.22765        -0.1139    
N2440  N        N_3    0.72072   0.73144   0.02235        -0.1139    
H2441  H        H_     0.55536   0.67162   0.06635         0.1382    
H2442  H        H_     0.69464   0.70338   0.18364         0.1382    
H2443  H        H_     0.56125   0.65035   0.18224         0.1093    
H2444  H        H_     0.68875   0.72465   0.06775         0.1093    
H2445  H        H_     0.64538   0.70718   0.06825         0.1478    
H2446  H        H_     0.60462   0.66782   0.18175         0.1478    
H2447  H        H_     0.59698   0.69193   0.06471         0.1419    
H2448  H        H_     0.65302   0.68307   0.18529         0.1419    
C2449  C        C_2     0.94751   0.66273   0.08708        -0.1076    
C2450  C        C_2     0.80249   0.71228   0.16293        -0.1076    
C2451  C        C_2    0.94428   0.65104   0.16072        -0.1292    
C2452  C        C_2    0.80572   0.72396   0.08929        -0.1292    
C2453  C        C_2    0.92993   0.66289   0.12347         0.0449    
C2454  C        C_2    0.82007   0.71211   0.12654         0.0449    
C2455  C        C_R    0.89998   0.67416   0.12266         0.0434    
C2456  C        C_R    0.85002   0.70085   0.12734         0.0434    
C2457  C        C_R    0.86351   0.69989   0.08518        -0.1564    
C2458  C        C_R    0.88649   0.67511   0.16482        -0.1564    
C2459  C        C_R    0.88849   0.68654   0.08284        -0.1852    
C2460  C        C_R    0.86151   0.68846   0.16716        -0.1852    
N2461  N        N_3    0.97272   0.65078   0.10184        -0.2672    
N2462  N        N_3    0.77728   0.72422   0.14817        -0.2672    
N2463  N        N_3    0.97072   0.64356   0.14735        -0.1139    
N2464  N        N_3    0.77928   0.73144   0.10266        -0.1139    
H2465  H        H_     0.94298   0.66973   0.05668         0.1382    
H2466  H        H_     0.80702   0.70527   0.19332         0.1382    
H2467  H        H_     0.93709   0.64845   0.19079         0.1093    
H2468  H        H_     0.81291   0.72655   0.05921         0.1093    
H2469  H        H_     0.85566   0.70836   0.05797         0.1478    
H2470  H        H_     0.89435   0.66664   0.19203         0.1478    
H2471  H        H_     0.89771   0.68589   0.05403         0.1419    
H2472  H        H_     0.85229   0.68911   0.19598         0.1419    
C2473  C        C_2     0.94751   0.58727   0.21208        -0.1076    
C2474  C        C_2     0.80249   0.53773   0.03793        -0.1076    
C2475  C        C_2    0.94428   0.59896   0.03572        -0.1292    
C2476  C        C_2    0.80572   0.52604   0.21429        -0.1292    
C2477  C        C_2    0.92993   0.58711   0.24847         0.0449    
C2478  C        C_2    0.82007   0.53789   0.00154         0.0449    
C2479  C        C_R    0.89998   0.57585   0.24766         0.0434    
C2480  C        C_R    0.85002   0.54915   0.00234         0.0434    
C2481  C        C_R    0.86351   0.55011   0.21018        -0.1564    
C2482  C        C_R    0.88649   0.57489   0.03982        -0.1564    
C2483  C        C_R    0.88849   0.56346   0.20784        -0.1852    
C2484  C        C_R    0.86151   0.56154   0.04216        -0.1852    
N2485  N        N_3    0.97272   0.59922   0.22684        -0.2672    
N2486  N        N_3    0.77728   0.52578   0.02317        -0.2672    
N2487  N        N_3    0.97072   0.60644   0.02235        -0.1139    
N2488  N        N_3    0.77928   0.51856   0.22765        -0.1139    
H2489  H        H_     0.94298   0.58027   0.18168         0.1382    
H2490  H        H_     0.80702   0.54473   0.06832         0.1382    
H2491  H        H_     0.93709   0.60155   0.06579         0.1093    
H2492  H        H_     0.81291   0.52345   0.18421         0.1093    
H2493  H        H_     0.85566   0.54164   0.18297         0.1478    
H2494  H        H_     0.89435   0.58336   0.06703         0.1478    
H2495  H        H_     0.89771   0.56411   0.17903         0.1419    
H2496  H        H_     0.85229   0.56089   0.07098         0.1419    
Co2497 Co      Zn3+2   0.50000   0.62024   0.18750          0.668    
Co2498 Co      Zn3+2   0.50000   0.62976   0.06250          0.668    
Co2499 Co      Zn3+2   0.75000   0.74524   0.18750          0.668    
Co2500 Co      Zn3+2   0.75000   0.50476   0.06250          0.668    
C2501  C        C_2     0.69751   0.53773   0.33708        -0.1076    
C2502  C        C_2     0.55249   0.58727   0.41293        -0.1076    
C2503  C        C_2    0.69428   0.52604   0.41072        -0.1292    
C2504  C        C_2    0.55572   0.59896   0.33929        -0.1292    
C2505  C        C_2    0.67993   0.53789   0.37347         0.0449    
C2506  C        C_2    0.57007   0.58711   0.37654         0.0449    
C2507  C        C_R    0.64998   0.54916   0.37266         0.0434    
C2508  C        C_R    0.60002   0.57585   0.37734         0.0434    
C2509  C        C_R    0.61351   0.57489   0.33518        -0.1564    
C2510  C        C_R    0.63649   0.55011   0.41482        -0.1564    
C2511  C        C_R    0.63849   0.56154   0.33284        -0.1852    
C2512  C        C_R    0.61151   0.56346   0.41716        -0.1852    
N2513  N        N_3    0.72272   0.52578   0.35184        -0.2672    
N2514  N        N_3    0.52728   0.59922   0.39817        -0.2672    
N2515  N        N_3    0.72072   0.51856   0.39735        -0.1139    
N2516  N        N_3    0.52928   0.60644   0.35265        -0.1139    
H2517  H        H_     0.69298   0.54473   0.30668         0.1382    
H2518  H        H_     0.55702   0.58027   0.44332         0.1382    
H2519  H        H_     0.68709   0.52345   0.44079         0.1093    
H2520  H        H_     0.56291   0.60155   0.30921         0.1093    
H2521  H        H_     0.60566   0.58336   0.30797         0.1478    
H2522  H        H_     0.64434   0.54164   0.44203         0.1478    
H2523  H        H_     0.64771   0.56089   0.30403         0.1419    
H2524  H        H_     0.60229   0.56411   0.44598         0.1419    
C2525  C        C_2     0.55113   0.66427   0.28632        -0.1076    
C2526  C        C_2     0.69887   0.71073   0.46367        -0.1076    
C2527  C        C_2    0.55437   0.65259   0.46268        -0.1292    
C2528  C        C_2    0.69564   0.72241   0.28731        -0.1292    
C2529  C        C_2    0.56787   0.66539   0.49894         0.0449    
C2530  C        C_2    0.68213   0.70961   0.25105         0.0449    
C2531  C        C_R    0.59625   0.67844   0.49790         0.0434    
C2532  C        C_R    0.65375   0.69656   0.25210         0.0434    
C2533  C        C_R    0.63711   0.69919   0.29054        -0.1564    
C2534  C        C_R    0.61290   0.67581   0.45946        -0.1564    
C2535  C        C_R    0.60835   0.69013   0.28844        -0.1852    
C2536  C        C_R    0.64165   0.68487   0.46156        -0.1852    
N2537  N        N_3    0.52728   0.65078   0.27316        -0.2672    
N2538  N        N_3    0.72272   0.72422   0.47683        -0.2672    
N2539  N        N_3    0.52928   0.64356   0.47765        -0.1139    
N2540  N        N_3    0.72072   0.73144   0.27234        -0.1139    
H2541  H        H_     0.55536   0.67162   0.31635         0.1382    
H2542  H        H_     0.69464   0.70338   0.43364         0.1382    
H2543  H        H_     0.56125   0.65035   0.43224         0.1093    
H2544  H        H_     0.68875   0.72465   0.31775         0.1093    
H2545  H        H_     0.64538   0.70718   0.31825         0.1478    
H2546  H        H_     0.60462   0.66782   0.43175         0.1478    
H2547  H        H_     0.59698   0.69193   0.31471         0.1419    
H2548  H        H_     0.65302   0.68307   0.43529         0.1419    
C2549  C        C_2     0.94751   0.66273   0.33708        -0.1076    
C2550  C        C_2     0.80249   0.71228   0.41293        -0.1076    
C2551  C        C_2    0.94428   0.65104   0.41072        -0.1292    
C2552  C        C_2    0.80572   0.72396   0.33929        -0.1292    
C2553  C        C_2    0.92993   0.66289   0.37347         0.0449    
C2554  C        C_2    0.82007   0.71211   0.37654         0.0449    
C2555  C        C_R    0.89998   0.67416   0.37266         0.0434    
C2556  C        C_R    0.85002   0.70085   0.37734         0.0434    
C2557  C        C_R    0.86351   0.69989   0.33518        -0.1564    
C2558  C        C_R    0.88649   0.67511   0.41482        -0.1564    
C2559  C        C_R    0.88849   0.68654   0.33284        -0.1852    
C2560  C        C_R    0.86151   0.68846   0.41716        -0.1852    
N2561  N        N_3    0.97272   0.65078   0.35184        -0.2672    
N2562  N        N_3    0.77728   0.72422   0.39817        -0.2672    
N2563  N        N_3    0.97072   0.64356   0.39735        -0.1139    
N2564  N        N_3    0.77928   0.73144   0.35265        -0.1139    
H2565  H        H_     0.94298   0.66973   0.30668         0.1382    
H2566  H        H_     0.80702   0.70527   0.44332         0.1382    
H2567  H        H_     0.93709   0.64845   0.44079         0.1093    
H2568  H        H_     0.81291   0.72655   0.30921         0.1093    
H2569  H        H_     0.85566   0.70836   0.30797         0.1478    
H2570  H        H_     0.89435   0.66664   0.44203         0.1478    
H2571  H        H_     0.89771   0.68589   0.30403         0.1419    
H2572  H        H_     0.85229   0.68911   0.44598         0.1419    
C2573  C        C_2     0.94751   0.58727   0.46208        -0.1076    
C2574  C        C_2     0.80249   0.53773   0.28793        -0.1076    
C2575  C        C_2    0.94428   0.59896   0.28572        -0.1292    
C2576  C        C_2    0.80572   0.52604   0.46429        -0.1292    
C2577  C        C_2    0.92993   0.58711   0.49847         0.0449    
C2578  C        C_2    0.82007   0.53789   0.25154         0.0449    
C2579  C        C_R    0.89998   0.57585   0.49766         0.0434    
C2580  C        C_R    0.85002   0.54915   0.25234         0.0434    
C2581  C        C_R    0.86351   0.55011   0.46018        -0.1564    
C2582  C        C_R    0.88649   0.57489   0.28982        -0.1564    
C2583  C        C_R    0.88849   0.56346   0.45784        -0.1852    
C2584  C        C_R    0.86151   0.56154   0.29216        -0.1852    
N2585  N        N_3    0.97272   0.59922   0.47684        -0.2672    
N2586  N        N_3    0.77728   0.52578   0.27317        -0.2672    
N2587  N        N_3    0.97072   0.60644   0.27235        -0.1139    
N2588  N        N_3    0.77928   0.51856   0.47765        -0.1139    
H2589  H        H_     0.94298   0.58027   0.43168         0.1382    
H2590  H        H_     0.80702   0.54473   0.31832         0.1382    
H2591  H        H_     0.93709   0.60155   0.31579         0.1093    
H2592  H        H_     0.81291   0.52345   0.43421         0.1093    
H2593  H        H_     0.85566   0.54164   0.43297         0.1478    
H2594  H        H_     0.89435   0.58336   0.31703         0.1478    
H2595  H        H_     0.89771   0.56411   0.42903         0.1419    
H2596  H        H_     0.85229   0.56089   0.32098         0.1419    
Co2597 Co      Zn3+2   0.50000   0.62024   0.43750          0.668    
Co2598 Co      Zn3+2   0.50000   0.62976   0.31250          0.668    
Co2599 Co      Zn3+2   0.75000   0.74524   0.43750          0.668    
Co2600 Co      Zn3+2   0.75000   0.50476   0.31250          0.668    
C2601  C        C_2     0.69751   0.53773   0.58708        -0.1076    
C2602  C        C_2     0.55249   0.58727   0.66293        -0.1076    
C2603  C        C_2    0.69428   0.52604   0.66072        -0.1292    
C2604  C        C_2    0.55572   0.59896   0.58929        -0.1292    
C2605  C        C_2    0.67993   0.53789   0.62347         0.0449    
C2606  C        C_2    0.57007   0.58711   0.62654         0.0449    
C2607  C        C_R    0.64998   0.54916   0.62266         0.0434    
C2608  C        C_R    0.60002   0.57585   0.62734         0.0434    
C2609  C        C_R    0.61351   0.57489   0.58518        -0.1564    
C2610  C        C_R    0.63649   0.55011   0.66482        -0.1564    
C2611  C        C_R    0.63849   0.56154   0.58284        -0.1852    
C2612  C        C_R    0.61151   0.56346   0.66716        -0.1852    
N2613  N        N_3    0.72272   0.52578   0.60184        -0.2672    
N2614  N        N_3    0.52728   0.59922   0.64817        -0.2672    
N2615  N        N_3    0.72072   0.51856   0.64735        -0.1139    
N2616  N        N_3    0.52928   0.60644   0.60266        -0.1139    
H2617  H        H_     0.69298   0.54473   0.55668         0.1382    
H2618  H        H_     0.55702   0.58027   0.69332         0.1382    
H2619  H        H_     0.68709   0.52345   0.69079         0.1093    
H2620  H        H_     0.56291   0.60155   0.55921         0.1093    
H2621  H        H_     0.60566   0.58336   0.55797         0.1478    
H2622  H        H_     0.64434   0.54164   0.69203         0.1478    
H2623  H        H_     0.64771   0.56089   0.55403         0.1419    
H2624  H        H_     0.60229   0.56411   0.69598         0.1419    
C2625  C        C_2     0.55113   0.66427   0.53632        -0.1076    
C2626  C        C_2     0.69887   0.71073   0.71367        -0.1076    
C2627  C        C_2    0.55437   0.65259   0.71268        -0.1292    
C2628  C        C_2    0.69564   0.72241   0.53731        -0.1292    
C2629  C        C_2    0.56787   0.66539   0.74894         0.0449    
C2630  C        C_2    0.68213   0.70961   0.50105         0.0449    
C2631  C        C_R    0.59625   0.67844   0.74790         0.0434    
C2632  C        C_R    0.65375   0.69656   0.50210         0.0434    
C2633  C        C_R    0.63711   0.69919   0.54054        -0.1564    
C2634  C        C_R    0.61290   0.67581   0.70946        -0.1564    
C2635  C        C_R    0.60835   0.69013   0.53844        -0.1852    
C2636  C        C_R    0.64165   0.68487   0.71156        -0.1852    
N2637  N        N_3    0.52728   0.65078   0.52316        -0.2672    
N2638  N        N_3    0.72272   0.72422   0.72683        -0.2672    
N2639  N        N_3    0.52928   0.64356   0.72765        -0.1139    
N2640  N        N_3    0.72072   0.73144   0.52235        -0.1139    
H2641  H        H_     0.55536   0.67162   0.56635         0.1382    
H2642  H        H_     0.69464   0.70338   0.68364         0.1382    
H2643  H        H_     0.56125   0.65035   0.68224         0.1093    
H2644  H        H_     0.68875   0.72465   0.56775         0.1093    
H2645  H        H_     0.64538   0.70718   0.56825         0.1478    
H2646  H        H_     0.60462   0.66782   0.68175         0.1478    
H2647  H        H_     0.59698   0.69193   0.56471         0.1419    
H2648  H        H_     0.65302   0.68307   0.68529         0.1419    
C2649  C        C_2     0.94751   0.66273   0.58708        -0.1076    
C2650  C        C_2     0.80249   0.71228   0.66293        -0.1076    
C2651  C        C_2    0.94428   0.65104   0.66072        -0.1292    
C2652  C        C_2    0.80572   0.72396   0.58929        -0.1292    
C2653  C        C_2    0.92993   0.66289   0.62347         0.0449    
C2654  C        C_2    0.82007   0.71211   0.62654         0.0449    
C2655  C        C_R    0.89998   0.67416   0.62266         0.0434    
C2656  C        C_R    0.85002   0.70085   0.62734         0.0434    
C2657  C        C_R    0.86351   0.69989   0.58518        -0.1564    
C2658  C        C_R    0.88649   0.67511   0.66482        -0.1564    
C2659  C        C_R    0.88849   0.68654   0.58284        -0.1852    
C2660  C        C_R    0.86151   0.68846   0.66716        -0.1852    
N2661  N        N_3    0.97272   0.65078   0.60184        -0.2672    
N2662  N        N_3    0.77728   0.72422   0.64817        -0.2672    
N2663  N        N_3    0.97072   0.64356   0.64735        -0.1139    
N2664  N        N_3    0.77928   0.73144   0.60266        -0.1139    
H2665  H        H_     0.94298   0.66973   0.55668         0.1382    
H2666  H        H_     0.80702   0.70527   0.69332         0.1382    
H2667  H        H_     0.93709   0.64845   0.69079         0.1093    
H2668  H        H_     0.81291   0.72655   0.55921         0.1093    
H2669  H        H_     0.85566   0.70836   0.55797         0.1478    
H2670  H        H_     0.89435   0.66664   0.69203         0.1478    
H2671  H        H_     0.89771   0.68589   0.55403         0.1419    
H2672  H        H_     0.85229   0.68911   0.69598         0.1419    
C2673  C        C_2     0.94751   0.58727   0.71208        -0.1076    
C2674  C        C_2     0.80249   0.53773   0.53793        -0.1076    
C2675  C        C_2    0.94428   0.59896   0.53572        -0.1292    
C2676  C        C_2    0.80572   0.52604   0.71429        -0.1292    
C2677  C        C_2    0.92993   0.58711   0.74847         0.0449    
C2678  C        C_2    0.82007   0.53789   0.50154         0.0449    
C2679  C        C_R    0.89998   0.57585   0.74766         0.0434    
C2680  C        C_R    0.85002   0.54915   0.50234         0.0434    
C2681  C        C_R    0.86351   0.55011   0.71018        -0.1564    
C2682  C        C_R    0.88649   0.57489   0.53982        -0.1564    
C2683  C        C_R    0.88849   0.56346   0.70784        -0.1852    
C2684  C        C_R    0.86151   0.56154   0.54216        -0.1852    
N2685  N        N_3    0.97272   0.59922   0.72684        -0.2672    
N2686  N        N_3    0.77728   0.52578   0.52317        -0.2672    
N2687  N        N_3    0.97072   0.60644   0.52235        -0.1139    
N2688  N        N_3    0.77928   0.51856   0.72765        -0.1139    
H2689  H        H_     0.94298   0.58027   0.68168         0.1382    
H2690  H        H_     0.80702   0.54473   0.56832         0.1382    
H2691  H        H_     0.93709   0.60155   0.56579         0.1093    
H2692  H        H_     0.81291   0.52345   0.68421         0.1093    
H2693  H        H_     0.85566   0.54164   0.68297         0.1478    
H2694  H        H_     0.89435   0.58336   0.56703         0.1478    
H2695  H        H_     0.89771   0.56411   0.67903         0.1419    
H2696  H        H_     0.85229   0.56089   0.57098         0.1419    
Co2697 Co      Zn3+2   0.50000   0.62024   0.68750          0.668    
Co2698 Co      Zn3+2   0.50000   0.62976   0.56250          0.668    
Co2699 Co      Zn3+2   0.75000   0.74524   0.68750          0.668    
Co2700 Co      Zn3+2   0.75000   0.50476   0.56250          0.668    
C2701  C        C_2     0.69751   0.53773   0.83708        -0.1076    
C2702  C        C_2     0.55249   0.58727   0.91293        -0.1076    
C2703  C        C_2    0.69428   0.52604   0.91072        -0.1292    
C2704  C        C_2    0.55572   0.59896   0.83929        -0.1292    
C2705  C        C_2    0.67993   0.53789   0.87347         0.0449    
C2706  C        C_2    0.57007   0.58711   0.87654         0.0449    
C2707  C        C_R    0.64998   0.54916   0.87266         0.0434    
C2708  C        C_R    0.60002   0.57585   0.87734         0.0434    
C2709  C        C_R    0.61351   0.57489   0.83518        -0.1564    
C2710  C        C_R    0.63649   0.55011   0.91482        -0.1564    
C2711  C        C_R    0.63849   0.56154   0.83284        -0.1852    
C2712  C        C_R    0.61151   0.56346   0.91716        -0.1852    
N2713  N        N_3    0.72272   0.52578   0.85184        -0.2672    
N2714  N        N_3    0.52728   0.59922   0.89817        -0.2672    
N2715  N        N_3    0.72072   0.51856   0.89735        -0.1139    
N2716  N        N_3    0.52928   0.60644   0.85265        -0.1139    
H2717  H        H_     0.69298   0.54473   0.80668         0.1382    
H2718  H        H_     0.55702   0.58027   0.94332         0.1382    
H2719  H        H_     0.68709   0.52345   0.94079         0.1093    
H2720  H        H_     0.56291   0.60155   0.80921         0.1093    
H2721  H        H_     0.60566   0.58336   0.80797         0.1478    
H2722  H        H_     0.64434   0.54164   0.94203         0.1478    
H2723  H        H_     0.64771   0.56089   0.80403         0.1419    
H2724  H        H_     0.60229   0.56411   0.94598         0.1419    
C2725  C        C_2     0.55113   0.66427   0.78632        -0.1076    
C2726  C        C_2     0.69887   0.71073   0.96367        -0.1076    
C2727  C        C_2    0.55437   0.65259   0.96268        -0.1292    
C2728  C        C_2    0.69564   0.72241   0.78731        -0.1292    
C2729  C        C_2    0.56787   0.66539   0.99894         0.0449    
C2730  C        C_2    0.68213   0.70961   0.75105         0.0449    
C2731  C        C_R    0.59625   0.67844   0.99790         0.0434    
C2732  C        C_R    0.65375   0.69656   0.75210         0.0434    
C2733  C        C_R    0.63711   0.69919   0.79054        -0.1564    
C2734  C        C_R    0.61290   0.67581   0.95946        -0.1564    
C2735  C        C_R    0.60835   0.69013   0.78844        -0.1852    
C2736  C        C_R    0.64165   0.68487   0.96156        -0.1852    
N2737  N        N_3    0.52728   0.65078   0.77316        -0.2672    
N2738  N        N_3    0.72272   0.72422   0.97683        -0.2672    
N2739  N        N_3    0.52928   0.64356   0.97765        -0.1139    
N2740  N        N_3    0.72072   0.73144   0.77234        -0.1139    
H2741  H        H_     0.55536   0.67162   0.81635         0.1382    
H2742  H        H_     0.69464   0.70338   0.93364         0.1382    
H2743  H        H_     0.56125   0.65035   0.93224         0.1093    
H2744  H        H_     0.68875   0.72465   0.81775         0.1093    
H2745  H        H_     0.64538   0.70718   0.81825         0.1478    
H2746  H        H_     0.60462   0.66782   0.93175         0.1478    
H2747  H        H_     0.59698   0.69193   0.81471         0.1419    
H2748  H        H_     0.65302   0.68307   0.93529         0.1419    
C2749  C        C_2     0.94751   0.66273   0.83708        -0.1076    
C2750  C        C_2     0.80249   0.71228   0.91293        -0.1076    
C2751  C        C_2    0.94428   0.65104   0.91072        -0.1292    
C2752  C        C_2    0.80572   0.72396   0.83929        -0.1292    
C2753  C        C_2    0.92993   0.66289   0.87347         0.0449    
C2754  C        C_2    0.82007   0.71211   0.87654         0.0449    
C2755  C        C_R    0.89998   0.67416   0.87266         0.0434    
C2756  C        C_R    0.85002   0.70085   0.87734         0.0434    
C2757  C        C_R    0.86351   0.69989   0.83518        -0.1564    
C2758  C        C_R    0.88649   0.67511   0.91482        -0.1564    
C2759  C        C_R    0.88849   0.68654   0.83284        -0.1852    
C2760  C        C_R    0.86151   0.68846   0.91716        -0.1852    
N2761  N        N_3    0.97272   0.65078   0.85184        -0.2672    
N2762  N        N_3    0.77728   0.72422   0.89817        -0.2672    
N2763  N        N_3    0.97072   0.64356   0.89735        -0.1139    
N2764  N        N_3    0.77928   0.73144   0.85265        -0.1139    
H2765  H        H_     0.94298   0.66973   0.80668         0.1382    
H2766  H        H_     0.80702   0.70527   0.94332         0.1382    
H2767  H        H_     0.93709   0.64845   0.94079         0.1093    
H2768  H        H_     0.81291   0.72655   0.80921         0.1093    
H2769  H        H_     0.85566   0.70836   0.80797         0.1478    
H2770  H        H_     0.89435   0.66664   0.94203         0.1478    
H2771  H        H_     0.89771   0.68589   0.80403         0.1419    
H2772  H        H_     0.85229   0.68911   0.94598         0.1419    
C2773  C        C_2     0.94751   0.58727   0.96208        -0.1076    
C2774  C        C_2     0.80249   0.53773   0.78793        -0.1076    
C2775  C        C_2    0.94428   0.59896   0.78572        -0.1292    
C2776  C        C_2    0.80572   0.52604   0.96429        -0.1292    
C2777  C        C_2    0.92993   0.58711   0.99847         0.0449    
C2778  C        C_2    0.82007   0.53789   0.75154         0.0449    
C2779  C        C_R    0.89998   0.57585   0.99766         0.0434    
C2780  C        C_R    0.85002   0.54915   0.75234         0.0434    
C2781  C        C_R    0.86351   0.55011   0.96018        -0.1564    
C2782  C        C_R    0.88649   0.57489   0.78982        -0.1564    
C2783  C        C_R    0.88849   0.56346   0.95784        -0.1852    
C2784  C        C_R    0.86151   0.56154   0.79216        -0.1852    
N2785  N        N_3    0.97272   0.59922   0.97684        -0.2672    
N2786  N        N_3    0.77728   0.52578   0.77317        -0.2672    
N2787  N        N_3    0.97072   0.60644   0.77235        -0.1139    
N2788  N        N_3    0.77928   0.51856   0.97765        -0.1139    
H2789  H        H_     0.94298   0.58027   0.93168         0.1382    
H2790  H        H_     0.80702   0.54473   0.81832         0.1382    
H2791  H        H_     0.93709   0.60155   0.81579         0.1093    
H2792  H        H_     0.81291   0.52345   0.93421         0.1093    
H2793  H        H_     0.85566   0.54164   0.93297         0.1478    
H2794  H        H_     0.89435   0.58336   0.81703         0.1478    
H2795  H        H_     0.89771   0.56411   0.92903         0.1419    
H2796  H        H_     0.85229   0.56089   0.82098         0.1419    
Co2797 Co      Zn3+2   0.50000   0.62024   0.93750          0.668    
Co2798 Co      Zn3+2   0.50000   0.62976   0.81250          0.668    
Co2799 Co      Zn3+2   0.75000   0.74524   0.93750          0.668    
Co2800 Co      Zn3+2   0.75000   0.50476   0.81250          0.668    
C2801  C        C_2     0.69751   0.78773   0.08708        -0.1076    
C2802  C        C_2     0.55249   0.83727   0.16293        -0.1076    
C2803  C        C_2    0.69428   0.77604   0.16072        -0.1292    
C2804  C        C_2    0.55572   0.84896   0.08929        -0.1292    
C2805  C        C_2    0.67993   0.78789   0.12347         0.0449    
C2806  C        C_2    0.57007   0.83711   0.12654         0.0449    
C2807  C        C_R    0.64998   0.79916   0.12266         0.0434    
C2808  C        C_R    0.60002   0.82585   0.12734         0.0434    
C2809  C        C_R    0.61351   0.82489   0.08518        -0.1564    
C2810  C        C_R    0.63649   0.80011   0.16482        -0.1564    
C2811  C        C_R    0.63849   0.81154   0.08284        -0.1852    
C2812  C        C_R    0.61151   0.81346   0.16716        -0.1852    
N2813  N        N_3    0.72272   0.77578   0.10184        -0.2672    
N2814  N        N_3    0.52728   0.84922   0.14817        -0.2672    
N2815  N        N_3    0.72072   0.76856   0.14735        -0.1139    
N2816  N        N_3    0.52928   0.85644   0.10266        -0.1139    
H2817  H        H_     0.69298   0.79473   0.05668         0.1382    
H2818  H        H_     0.55702   0.83027   0.19332         0.1382    
H2819  H        H_     0.68709   0.77345   0.19079         0.1093    
H2820  H        H_     0.56291   0.85155   0.05921         0.1093    
H2821  H        H_     0.60566   0.83336   0.05797         0.1478    
H2822  H        H_     0.64434   0.79164   0.19203         0.1478    
H2823  H        H_     0.64771   0.81089   0.05403         0.1419    
H2824  H        H_     0.60229   0.81411   0.19598         0.1419    
C2825  C        C_2     0.55113   0.91427   0.03632        -0.1076    
C2826  C        C_2     0.69887   0.96073   0.21367        -0.1076    
C2827  C        C_2    0.55437   0.90259   0.21268        -0.1292    
C2828  C        C_2    0.69564   0.97241   0.03731        -0.1292    
C2829  C        C_2    0.56787   0.91539   0.24894         0.0449    
C2830  C        C_2    0.68213   0.95961   0.00105         0.0449    
C2831  C        C_R    0.59625   0.92844   0.24790         0.0434    
C2832  C        C_R    0.65375   0.94656   0.00210         0.0434    
C2833  C        C_R    0.63711   0.94919   0.04054        -0.1564    
C2834  C        C_R    0.61290   0.92581   0.20946        -0.1564    
C2835  C        C_R    0.60835   0.94013   0.03844        -0.1852    
C2836  C        C_R    0.64165   0.93487   0.21156        -0.1852    
N2837  N        N_3    0.52728   0.90078   0.02316        -0.2672    
N2838  N        N_3    0.72272   0.97422   0.22683        -0.2672    
N2839  N        N_3    0.52928   0.89356   0.22765        -0.1139    
N2840  N        N_3    0.72072   0.98144   0.02235        -0.1139    
H2841  H        H_     0.55536   0.92162   0.06635         0.1382    
H2842  H        H_     0.69464   0.95338   0.18364         0.1382    
H2843  H        H_     0.56125   0.90035   0.18224         0.1093    
H2844  H        H_     0.68875   0.97465   0.06775         0.1093    
H2845  H        H_     0.64538   0.95718   0.06825         0.1478    
H2846  H        H_     0.60462   0.91782   0.18175         0.1478    
H2847  H        H_     0.59698   0.94193   0.06471         0.1419    
H2848  H        H_     0.65302   0.93307   0.18529         0.1419    
C2849  C        C_2     0.94751   0.91273   0.08708        -0.1076    
C2850  C        C_2     0.80249   0.96227   0.16293        -0.1076    
C2851  C        C_2    0.94428   0.90104   0.16072        -0.1292    
C2852  C        C_2    0.80572   0.97396   0.08929        -0.1292    
C2853  C        C_2    0.92993   0.91289   0.12347         0.0449    
C2854  C        C_2    0.82007   0.96211   0.12654         0.0449    
C2855  C        C_R    0.89998   0.92416   0.12266         0.0434    
C2856  C        C_R    0.85002   0.95085   0.12734         0.0434    
C2857  C        C_R    0.86351   0.94989   0.08518        -0.1564    
C2858  C        C_R    0.88649   0.92511   0.16482        -0.1564    
C2859  C        C_R    0.88849   0.93654   0.08284        -0.1852    
C2860  C        C_R    0.86151   0.93846   0.16716        -0.1852    
N2861  N        N_3    0.97272   0.90078   0.10184        -0.2672    
N2862  N        N_3    0.77728   0.97422   0.14817        -0.2672    
N2863  N        N_3    0.97072   0.89356   0.14735        -0.1139    
N2864  N        N_3    0.77928   0.98144   0.10266        -0.1139    
H2865  H        H_     0.94298   0.91973   0.05668         0.1382    
H2866  H        H_     0.80702   0.95527   0.19332         0.1382    
H2867  H        H_     0.93709   0.89845   0.19079         0.1093    
H2868  H        H_     0.81291   0.97655   0.05921         0.1093    
H2869  H        H_     0.85566   0.95836   0.05797         0.1478    
H2870  H        H_     0.89435   0.91664   0.19203         0.1478    
H2871  H        H_     0.89771   0.93589   0.05403         0.1419    
H2872  H        H_     0.85229   0.93911   0.19598         0.1419    
C2873  C        C_2     0.94751   0.83727   0.21208        -0.1076    
C2874  C        C_2     0.80249   0.78773   0.03793        -0.1076    
C2875  C        C_2    0.94428   0.84896   0.03572        -0.1292    
C2876  C        C_2    0.80572   0.77604   0.21429        -0.1292    
C2877  C        C_2    0.92993   0.83711   0.24847         0.0449    
C2878  C        C_2    0.82007   0.78789   0.00154         0.0449    
C2879  C        C_R    0.89998   0.82585   0.24766         0.0434    
C2880  C        C_R    0.85002   0.79915   0.00234         0.0434    
C2881  C        C_R    0.86351   0.80011   0.21018        -0.1564    
C2882  C        C_R    0.88649   0.82489   0.03982        -0.1564    
C2883  C        C_R    0.88849   0.81346   0.20784        -0.1852    
C2884  C        C_R    0.86151   0.81154   0.04216        -0.1852    
N2885  N        N_3    0.97272   0.84922   0.22684        -0.2672    
N2886  N        N_3    0.77728   0.77578   0.02317        -0.2672    
N2887  N        N_3    0.97072   0.85644   0.02235        -0.1139    
N2888  N        N_3    0.77928   0.76856   0.22765        -0.1139    
H2889  H        H_     0.94298   0.83027   0.18168         0.1382    
H2890  H        H_     0.80702   0.79473   0.06832         0.1382    
H2891  H        H_     0.93709   0.85155   0.06579         0.1093    
H2892  H        H_     0.81291   0.77345   0.18421         0.1093    
H2893  H        H_     0.85566   0.79164   0.18297         0.1478    
H2894  H        H_     0.89435   0.83336   0.06703         0.1478    
H2895  H        H_     0.89771   0.81411   0.17903         0.1419    
H2896  H        H_     0.85229   0.81089   0.07098         0.1419    
Co2897 Co      Zn3+2   0.50000   0.87024   0.18750          0.668    
Co2898 Co      Zn3+2   0.50000   0.87976   0.06250          0.668    
Co2899 Co      Zn3+2   0.75000   0.99524   0.18750          0.668    
Co2900 Co      Zn3+2   0.75000   0.75476   0.06250          0.668    
C2901  C        C_2     0.69751   0.78773   0.33708        -0.1076    
C2902  C        C_2     0.55249   0.83727   0.41293        -0.1076    
C2903  C        C_2    0.69428   0.77604   0.41072        -0.1292    
C2904  C        C_2    0.55572   0.84896   0.33929        -0.1292    
C2905  C        C_2    0.67993   0.78789   0.37347         0.0449    
C2906  C        C_2    0.57007   0.83711   0.37654         0.0449    
C2907  C        C_R    0.64998   0.79916   0.37266         0.0434    
C2908  C        C_R    0.60002   0.82585   0.37734         0.0434    
C2909  C        C_R    0.61351   0.82489   0.33518        -0.1564    
C2910  C        C_R    0.63649   0.80011   0.41482        -0.1564    
C2911  C        C_R    0.63849   0.81154   0.33284        -0.1852    
C2912  C        C_R    0.61151   0.81346   0.41716        -0.1852    
N2913  N        N_3    0.72272   0.77578   0.35184        -0.2672    
N2914  N        N_3    0.52728   0.84922   0.39817        -0.2672    
N2915  N        N_3    0.72072   0.76856   0.39735        -0.1139    
N2916  N        N_3    0.52928   0.85644   0.35265        -0.1139    
H2917  H        H_     0.69298   0.79473   0.30668         0.1382    
H2918  H        H_     0.55702   0.83027   0.44332         0.1382    
H2919  H        H_     0.68709   0.77345   0.44079         0.1093    
H2920  H        H_     0.56291   0.85155   0.30921         0.1093    
H2921  H        H_     0.60566   0.83336   0.30797         0.1478    
H2922  H        H_     0.64434   0.79164   0.44203         0.1478    
H2923  H        H_     0.64771   0.81089   0.30403         0.1419    
H2924  H        H_     0.60229   0.81411   0.44598         0.1419    
C2925  C        C_2     0.55113   0.91427   0.28632        -0.1076    
C2926  C        C_2     0.69887   0.96073   0.46367        -0.1076    
C2927  C        C_2    0.55437   0.90259   0.46268        -0.1292    
C2928  C        C_2    0.69564   0.97241   0.28731        -0.1292    
C2929  C        C_2    0.56787   0.91539   0.49894         0.0449    
C2930  C        C_2    0.68213   0.95961   0.25105         0.0449    
C2931  C        C_R    0.59625   0.92844   0.49790         0.0434    
C2932  C        C_R    0.65375   0.94656   0.25210         0.0434    
C2933  C        C_R    0.63711   0.94919   0.29054        -0.1564    
C2934  C        C_R    0.61290   0.92581   0.45946        -0.1564    
C2935  C        C_R    0.60835   0.94013   0.28844        -0.1852    
C2936  C        C_R    0.64165   0.93487   0.46156        -0.1852    
N2937  N        N_3    0.52728   0.90078   0.27316        -0.2672    
N2938  N        N_3    0.72272   0.97422   0.47683        -0.2672    
N2939  N        N_3    0.52928   0.89356   0.47765        -0.1139    
N2940  N        N_3    0.72072   0.98144   0.27234        -0.1139    
H2941  H        H_     0.55536   0.92162   0.31635         0.1382    
H2942  H        H_     0.69464   0.95338   0.43364         0.1382    
H2943  H        H_     0.56125   0.90035   0.43224         0.1093    
H2944  H        H_     0.68875   0.97465   0.31775         0.1093    
H2945  H        H_     0.64538   0.95718   0.31825         0.1478    
H2946  H        H_     0.60462   0.91782   0.43175         0.1478    
H2947  H        H_     0.59698   0.94193   0.31471         0.1419    
H2948  H        H_     0.65302   0.93307   0.43529         0.1419    
C2949  C        C_2     0.94751   0.91273   0.33708        -0.1076    
C2950  C        C_2     0.80249   0.96227   0.41293        -0.1076    
C2951  C        C_2    0.94428   0.90104   0.41072        -0.1292    
C2952  C        C_2    0.80572   0.97396   0.33929        -0.1292    
C2953  C        C_2    0.92993   0.91289   0.37347         0.0449    
C2954  C        C_2    0.82007   0.96211   0.37654         0.0449    
C2955  C        C_R    0.89998   0.92416   0.37266         0.0434    
C2956  C        C_R    0.85002   0.95085   0.37734         0.0434    
C2957  C        C_R    0.86351   0.94989   0.33518        -0.1564    
C2958  C        C_R    0.88649   0.92511   0.41482        -0.1564    
C2959  C        C_R    0.88849   0.93654   0.33284        -0.1852    
C2960  C        C_R    0.86151   0.93846   0.41716        -0.1852    
N2961  N        N_3    0.97272   0.90078   0.35184        -0.2672    
N2962  N        N_3    0.77728   0.97422   0.39817        -0.2672    
N2963  N        N_3    0.97072   0.89356   0.39735        -0.1139    
N2964  N        N_3    0.77928   0.98144   0.35265        -0.1139    
H2965  H        H_     0.94298   0.91973   0.30668         0.1382    
H2966  H        H_     0.80702   0.95527   0.44332         0.1382    
H2967  H        H_     0.93709   0.89845   0.44079         0.1093    
H2968  H        H_     0.81291   0.97655   0.30921         0.1093    
H2969  H        H_     0.85566   0.95836   0.30797         0.1478    
H2970  H        H_     0.89435   0.91664   0.44203         0.1478    
H2971  H        H_     0.89771   0.93589   0.30403         0.1419    
H2972  H        H_     0.85229   0.93911   0.44598         0.1419    
C2973  C        C_2     0.94751   0.83727   0.46208        -0.1076    
C2974  C        C_2     0.80249   0.78773   0.28793        -0.1076    
C2975  C        C_2    0.94428   0.84896   0.28572        -0.1292    
C2976  C        C_2    0.80572   0.77604   0.46429        -0.1292    
C2977  C        C_2    0.92993   0.83711   0.49847         0.0449    
C2978  C        C_2    0.82007   0.78789   0.25154         0.0449    
C2979  C        C_R    0.89998   0.82585   0.49766         0.0434    
C2980  C        C_R    0.85002   0.79915   0.25234         0.0434    
C2981  C        C_R    0.86351   0.80011   0.46018        -0.1564    
C2982  C        C_R    0.88649   0.82489   0.28982        -0.1564    
C2983  C        C_R    0.88849   0.81346   0.45784        -0.1852    
C2984  C        C_R    0.86151   0.81154   0.29216        -0.1852    
N2985  N        N_3    0.97272   0.84922   0.47684        -0.2672    
N2986  N        N_3    0.77728   0.77578   0.27317        -0.2672    
N2987  N        N_3    0.97072   0.85644   0.27235        -0.1139    
N2988  N        N_3    0.77928   0.76856   0.47765        -0.1139    
H2989  H        H_     0.94298   0.83027   0.43168         0.1382    
H2990  H        H_     0.80702   0.79473   0.31832         0.1382    
H2991  H        H_     0.93709   0.85155   0.31579         0.1093    
H2992  H        H_     0.81291   0.77345   0.43421         0.1093    
H2993  H        H_     0.85566   0.79164   0.43297         0.1478    
H2994  H        H_     0.89435   0.83336   0.31703         0.1478    
H2995  H        H_     0.89771   0.81411   0.42903         0.1419    
H2996  H        H_     0.85229   0.81089   0.32098         0.1419    
Co2997 Co      Zn3+2   0.50000   0.87024   0.43750          0.668    
Co2998 Co      Zn3+2   0.50000   0.87976   0.31250          0.668    
Co2999 Co      Zn3+2   0.75000   0.99524   0.43750          0.668    
Co3000 Co      Zn3+2   0.75000   0.75476   0.31250          0.668    
C3001  C        C_2     0.69751   0.78773   0.58708        -0.1076    
C3002  C        C_2     0.55249   0.83727   0.66293        -0.1076    
C3003  C        C_2    0.69428   0.77604   0.66072        -0.1292    
C3004  C        C_2    0.55572   0.84896   0.58929        -0.1292    
C3005  C        C_2    0.67993   0.78789   0.62347         0.0449    
C3006  C        C_2    0.57007   0.83711   0.62654         0.0449    
C3007  C        C_R    0.64998   0.79916   0.62266         0.0434    
C3008  C        C_R    0.60002   0.82585   0.62734         0.0434    
C3009  C        C_R    0.61351   0.82489   0.58518        -0.1564    
C3010  C        C_R    0.63649   0.80011   0.66482        -0.1564    
C3011  C        C_R    0.63849   0.81154   0.58284        -0.1852    
C3012  C        C_R    0.61151   0.81346   0.66716        -0.1852    
N3013  N        N_3    0.72272   0.77578   0.60184        -0.2672    
N3014  N        N_3    0.52728   0.84922   0.64817        -0.2672    
N3015  N        N_3    0.72072   0.76856   0.64735        -0.1139    
N3016  N        N_3    0.52928   0.85644   0.60266        -0.1139    
H3017  H        H_     0.69298   0.79473   0.55668         0.1382    
H3018  H        H_     0.55702   0.83027   0.69332         0.1382    
H3019  H        H_     0.68709   0.77345   0.69079         0.1093    
H3020  H        H_     0.56291   0.85155   0.55921         0.1093    
H3021  H        H_     0.60566   0.83336   0.55797         0.1478    
H3022  H        H_     0.64434   0.79164   0.69203         0.1478    
H3023  H        H_     0.64771   0.81089   0.55403         0.1419    
H3024  H        H_     0.60229   0.81411   0.69598         0.1419    
C3025  C        C_2     0.55113   0.91427   0.53632        -0.1076    
C3026  C        C_2     0.69887   0.96073   0.71367        -0.1076    
C3027  C        C_2    0.55437   0.90259   0.71268        -0.1292    
C3028  C        C_2    0.69564   0.97241   0.53731        -0.1292    
C3029  C        C_2    0.56787   0.91539   0.74894         0.0449    
C3030  C        C_2    0.68213   0.95961   0.50105         0.0449    
C3031  C        C_R    0.59625   0.92844   0.74790         0.0434    
C3032  C        C_R    0.65375   0.94656   0.50210         0.0434    
C3033  C        C_R    0.63711   0.94919   0.54054        -0.1564    
C3034  C        C_R    0.61290   0.92581   0.70946        -0.1564    
C3035  C        C_R    0.60835   0.94013   0.53844        -0.1852    
C3036  C        C_R    0.64165   0.93487   0.71156        -0.1852    
N3037  N        N_3    0.52728   0.90078   0.52316        -0.2672    
N3038  N        N_3    0.72272   0.97422   0.72683        -0.2672    
N3039  N        N_3    0.52928   0.89356   0.72765        -0.1139    
N3040  N        N_3    0.72072   0.98144   0.52235        -0.1139    
H3041  H        H_     0.55536   0.92162   0.56635         0.1382    
H3042  H        H_     0.69464   0.95338   0.68364         0.1382    
H3043  H        H_     0.56125   0.90035   0.68224         0.1093    
H3044  H        H_     0.68875   0.97465   0.56775         0.1093    
H3045  H        H_     0.64538   0.95718   0.56825         0.1478    
H3046  H        H_     0.60462   0.91782   0.68175         0.1478    
H3047  H        H_     0.59698   0.94193   0.56471         0.1419    
H3048  H        H_     0.65302   0.93307   0.68529         0.1419    
C3049  C        C_2     0.94751   0.91273   0.58708        -0.1076    
C3050  C        C_2     0.80249   0.96227   0.66293        -0.1076    
C3051  C        C_2    0.94428   0.90104   0.66072        -0.1292    
C3052  C        C_2    0.80572   0.97396   0.58929        -0.1292    
C3053  C        C_2    0.92993   0.91289   0.62347         0.0449    
C3054  C        C_2    0.82007   0.96211   0.62654         0.0449    
C3055  C        C_R    0.89998   0.92416   0.62266         0.0434    
C3056  C        C_R    0.85002   0.95085   0.62734         0.0434    
C3057  C        C_R    0.86351   0.94989   0.58518        -0.1564    
C3058  C        C_R    0.88649   0.92511   0.66482        -0.1564    
C3059  C        C_R    0.88849   0.93654   0.58284        -0.1852    
C3060  C        C_R    0.86151   0.93846   0.66716        -0.1852    
N3061  N        N_3    0.97272   0.90078   0.60184        -0.2672    
N3062  N        N_3    0.77728   0.97422   0.64817        -0.2672    
N3063  N        N_3    0.97072   0.89356   0.64735        -0.1139    
N3064  N        N_3    0.77928   0.98144   0.60266        -0.1139    
H3065  H        H_     0.94298   0.91973   0.55668         0.1382    
H3066  H        H_     0.80702   0.95527   0.69332         0.1382    
H3067  H        H_     0.93709   0.89845   0.69079         0.1093    
H3068  H        H_     0.81291   0.97655   0.55921         0.1093    
H3069  H        H_     0.85566   0.95836   0.55797         0.1478    
H3070  H        H_     0.89435   0.91664   0.69203         0.1478    
H3071  H        H_     0.89771   0.93589   0.55403         0.1419    
H3072  H        H_     0.85229   0.93911   0.69598         0.1419    
C3073  C        C_2     0.94751   0.83727   0.71208        -0.1076    
C3074  C        C_2     0.80249   0.78773   0.53793        -0.1076    
C3075  C        C_2    0.94428   0.84896   0.53572        -0.1292    
C3076  C        C_2    0.80572   0.77604   0.71429        -0.1292    
C3077  C        C_2    0.92993   0.83711   0.74847         0.0449    
C3078  C        C_2    0.82007   0.78789   0.50154         0.0449    
C3079  C        C_R    0.89998   0.82585   0.74766         0.0434    
C3080  C        C_R    0.85002   0.79915   0.50234         0.0434    
C3081  C        C_R    0.86351   0.80011   0.71018        -0.1564    
C3082  C        C_R    0.88649   0.82489   0.53982        -0.1564    
C3083  C        C_R    0.88849   0.81346   0.70784        -0.1852    
C3084  C        C_R    0.86151   0.81154   0.54216        -0.1852    
N3085  N        N_3    0.97272   0.84922   0.72684        -0.2672    
N3086  N        N_3    0.77728   0.77578   0.52317        -0.2672    
N3087  N        N_3    0.97072   0.85644   0.52235        -0.1139    
N3088  N        N_3    0.77928   0.76856   0.72765        -0.1139    
H3089  H        H_     0.94298   0.83027   0.68168         0.1382    
H3090  H        H_     0.80702   0.79473   0.56832         0.1382    
H3091  H        H_     0.93709   0.85155   0.56579         0.1093    
H3092  H        H_     0.81291   0.77345   0.68421         0.1093    
H3093  H        H_     0.85566   0.79164   0.68297         0.1478    
H3094  H        H_     0.89435   0.83336   0.56703         0.1478    
H3095  H        H_     0.89771   0.81411   0.67903         0.1419    
H3096  H        H_     0.85229   0.81089   0.57098         0.1419    
Co3097 Co      Zn3+2   0.50000   0.87024   0.68750          0.668    
Co3098 Co      Zn3+2   0.50000   0.87976   0.56250          0.668    
Co3099 Co      Zn3+2   0.75000   0.99524   0.68750          0.668    
Co3100 Co      Zn3+2   0.75000   0.75476   0.56250          0.668    
C3101  C        C_2     0.69751   0.78773   0.83708        -0.1076    
C3102  C        C_2     0.55249   0.83727   0.91293        -0.1076    
C3103  C        C_2    0.69428   0.77604   0.91072        -0.1292    
C3104  C        C_2    0.55572   0.84896   0.83929        -0.1292    
C3105  C        C_2    0.67993   0.78789   0.87347         0.0449    
C3106  C        C_2    0.57007   0.83711   0.87654         0.0449    
C3107  C        C_R    0.64998   0.79916   0.87266         0.0434    
C3108  C        C_R    0.60002   0.82585   0.87734         0.0434    
C3109  C        C_R    0.61351   0.82489   0.83518        -0.1564    
C3110  C        C_R    0.63649   0.80011   0.91482        -0.1564    
C3111  C        C_R    0.63849   0.81154   0.83284        -0.1852    
C3112  C        C_R    0.61151   0.81346   0.91716        -0.1852    
N3113  N        N_3    0.72272   0.77578   0.85184        -0.2672    
N3114  N        N_3    0.52728   0.84922   0.89817        -0.2672    
N3115  N        N_3    0.72072   0.76856   0.89735        -0.1139    
N3116  N        N_3    0.52928   0.85644   0.85265        -0.1139    
H3117  H        H_     0.69298   0.79473   0.80668         0.1382    
H3118  H        H_     0.55702   0.83027   0.94332         0.1382    
H3119  H        H_     0.68709   0.77345   0.94079         0.1093    
H3120  H        H_     0.56291   0.85155   0.80921         0.1093    
H3121  H        H_     0.60566   0.83336   0.80797         0.1478    
H3122  H        H_     0.64434   0.79164   0.94203         0.1478    
H3123  H        H_     0.64771   0.81089   0.80403         0.1419    
H3124  H        H_     0.60229   0.81411   0.94598         0.1419    
C3125  C        C_2     0.55113   0.91427   0.78632        -0.1076    
C3126  C        C_2     0.69887   0.96073   0.96367        -0.1076    
C3127  C        C_2    0.55437   0.90259   0.96268        -0.1292    
C3128  C        C_2    0.69564   0.97241   0.78731        -0.1292    
C3129  C        C_2    0.56787   0.91539   0.99894         0.0449    
C3130  C        C_2    0.68213   0.95961   0.75105         0.0449    
C3131  C        C_R    0.59625   0.92844   0.99790         0.0434    
C3132  C        C_R    0.65375   0.94656   0.75210         0.0434    
C3133  C        C_R    0.63711   0.94919   0.79054        -0.1564    
C3134  C        C_R    0.61290   0.92581   0.95946        -0.1564    
C3135  C        C_R    0.60835   0.94013   0.78844        -0.1852    
C3136  C        C_R    0.64165   0.93487   0.96156        -0.1852    
N3137  N        N_3    0.52728   0.90078   0.77316        -0.2672    
N3138  N        N_3    0.72272   0.97422   0.97683        -0.2672    
N3139  N        N_3    0.52928   0.89356   0.97765        -0.1139    
N3140  N        N_3    0.72072   0.98144   0.77234        -0.1139    
H3141  H        H_     0.55536   0.92162   0.81635         0.1382    
H3142  H        H_     0.69464   0.95338   0.93364         0.1382    
H3143  H        H_     0.56125   0.90035   0.93224         0.1093    
H3144  H        H_     0.68875   0.97465   0.81775         0.1093    
H3145  H        H_     0.64538   0.95718   0.81825         0.1478    
H3146  H        H_     0.60462   0.91782   0.93175         0.1478    
H3147  H        H_     0.59698   0.94193   0.81471         0.1419    
H3148  H        H_     0.65302   0.93307   0.93529         0.1419    
C3149  C        C_2     0.94751   0.91273   0.83708        -0.1076    
C3150  C        C_2     0.80249   0.96227   0.91293        -0.1076    
C3151  C        C_2    0.94428   0.90104   0.91072        -0.1292    
C3152  C        C_2    0.80572   0.97396   0.83929        -0.1292    
C3153  C        C_2    0.92993   0.91289   0.87347         0.0449    
C3154  C        C_2    0.82007   0.96211   0.87654         0.0449    
C3155  C        C_R    0.89998   0.92416   0.87266         0.0434    
C3156  C        C_R    0.85002   0.95085   0.87734         0.0434    
C3157  C        C_R    0.86351   0.94989   0.83518        -0.1564    
C3158  C        C_R    0.88649   0.92511   0.91482        -0.1564    
C3159  C        C_R    0.88849   0.93654   0.83284        -0.1852    
C3160  C        C_R    0.86151   0.93846   0.91716        -0.1852    
N3161  N        N_3    0.97272   0.90078   0.85184        -0.2672    
N3162  N        N_3    0.77728   0.97422   0.89817        -0.2672    
N3163  N        N_3    0.97072   0.89356   0.89735        -0.1139    
N3164  N        N_3    0.77928   0.98144   0.85265        -0.1139    
H3165  H        H_     0.94298   0.91973   0.80668         0.1382    
H3166  H        H_     0.80702   0.95527   0.94332         0.1382    
H3167  H        H_     0.93709   0.89845   0.94079         0.1093    
H3168  H        H_     0.81291   0.97655   0.80921         0.1093    
H3169  H        H_     0.85566   0.95836   0.80797         0.1478    
H3170  H        H_     0.89435   0.91664   0.94203         0.1478    
H3171  H        H_     0.89771   0.93589   0.80403         0.1419    
H3172  H        H_     0.85229   0.93911   0.94598         0.1419    
C3173  C        C_2     0.94751   0.83727   0.96208        -0.1076    
C3174  C        C_2     0.80249   0.78773   0.78793        -0.1076    
C3175  C        C_2    0.94428   0.84896   0.78572        -0.1292    
C3176  C        C_2    0.80572   0.77604   0.96429        -0.1292    
C3177  C        C_2    0.92993   0.83711   0.99847         0.0449    
C3178  C        C_2    0.82007   0.78789   0.75154         0.0449    
C3179  C        C_R    0.89998   0.82585   0.99766         0.0434    
C3180  C        C_R    0.85002   0.79915   0.75234         0.0434    
C3181  C        C_R    0.86351   0.80011   0.96018        -0.1564    
C3182  C        C_R    0.88649   0.82489   0.78982        -0.1564    
C3183  C        C_R    0.88849   0.81346   0.95784        -0.1852    
C3184  C        C_R    0.86151   0.81154   0.79216        -0.1852    
N3185  N        N_3    0.97272   0.84922   0.97684        -0.2672    
N3186  N        N_3    0.77728   0.77578   0.77317        -0.2672    
N3187  N        N_3    0.97072   0.85644   0.77235        -0.1139    
N3188  N        N_3    0.77928   0.76856   0.97765        -0.1139    
H3189  H        H_     0.94298   0.83027   0.93168         0.1382    
H3190  H        H_     0.80702   0.79473   0.81832         0.1382    
H3191  H        H_     0.93709   0.85155   0.81579         0.1093    
H3192  H        H_     0.81291   0.77345   0.93421         0.1093    
H3193  H        H_     0.85566   0.79164   0.93297         0.1478    
H3194  H        H_     0.89435   0.83336   0.81703         0.1478    
H3195  H        H_     0.89771   0.81411   0.92903         0.1419    
H3196  H        H_     0.85229   0.81089   0.82098         0.1419    
Co3197 Co      Zn3+2   0.50000   0.87024   0.93750          0.668    
Co3198 Co      Zn3+2   0.50000   0.87976   0.81250          0.668    
Co3199 Co      Zn3+2   0.75000   0.99524   0.93750          0.668    
Co3200 Co      Zn3+2   0.75000   0.75476   0.81250          0.668    
loop_
_geom_bond_atom_site_label_1
_geom_bond_atom_site_label_2
_geom_bond_distance
_geom_bond_site_symmetry_2
_ccdc_geom_bond_type
C1     C5      1.360   .     S
C1     N13     1.360   .     D
C1     H17     0.950   .     S
C2     C6      1.360   .     S
C2     N14     1.360   .     D
C2     H18     0.950   .     S
C3     C5      1.360   .     S
C3     N15     1.360   .     D
C3     H19     0.950   .     S
C4     C6      1.360   .     S
C4     N16     1.360   .     D
C4     H20     0.950   .     S
C5     C7      1.500   .     D
C6     C8      1.500   .     D
C7     C10     1.390   .     S
C7     C11     1.390   .     S
C8     C9      1.390   .     S
C8     C12     1.390   .     S
C9     C11     1.390   .     D
C9     H21     0.950   .     S
C10    C12     1.390   .     D
C10    H22     0.950   .     S
C11    H23     0.950   .     S
C12    H24     0.950   .     S
N13    N15     1.360   .     S
N13    Co100   2.166   .     S
N14    N16     1.360   .     S
N14    Co97    2.166   .     S
N15    Co1299  2.153   1_545 S
N16    Co98    2.153   .     S
C25    N37     1.360   .     D
C25    H41     0.950   .     S
C25    C329    1.360   1_554 S
C26    N38     1.360   .     D
C26    H42     0.950   .     S
C26    C130    1.360   .     S
C27    C29     1.360   .     S
C27    N39     1.360   .     D
C27    H43     0.950   .     S
C28    C30     1.360   .     S
C28    N40     1.360   .     D
C28    H44     0.950   .     S
C29    C31     1.500   .     D
C29    C125    1.360   .     S
C30    C32     1.500   .     D
C30    C326    1.360   1_554 S
C31    C34     1.390   .     S
C31    C135    1.390   .     S
C32    C33     1.390   .     S
C32    C336    1.390   1_554 S
C33    C35     1.390   .     D
C33    H45     0.950   .     S
C34    C36     1.390   .     D
C34    H46     0.950   .     S
C35    H47     0.950   .     S
C35    C331    1.390   1_554 S
C36    H48     0.950   .     S
C36    C132    1.390   .     S
N37    Co98    2.166   .     S
N37    N339    1.360   1_554 S
N38    Co99    2.166   .     S
N38    N140    1.360   .     S
N39    Co97    2.153   .     S
N39    N137    1.360   .     S
N40    N338    1.360   1_554 S
N40    Co500   2.153   .     S
C49    C53     1.360   .     S
C49    N61     1.360   .     D
C49    H65     0.950   .     S
C50    C54     1.360   .     S
C50    N62     1.360   .     D
C50    H66     0.950   .     S
C51    C53     1.360   .     S
C51    N63     1.360   .     D
C51    H67     0.950   .     S
C52    C54     1.360   .     S
C52    N64     1.360   .     D
C52    H68     0.950   .     S
C53    C55     1.500   .     D
C54    C56     1.500   .     D
C55    C58     1.390   .     S
C55    C59     1.390   .     S
C56    C57     1.390   .     S
C56    C60     1.390   .     S
C57    C59     1.390   .     D
C57    H69     0.950   .     S
C58    C60     1.390   .     D
C58    H70     0.950   .     S
C59    H71     0.950   .     S
C60    H72     0.950   .     S
N61    N63     1.360   .     S
N61    Co1698  2.166   .     S
N62    N64     1.360   .     S
N62    Co99    2.166   .     S
N63    Co1697  2.153   .     S
N64    Co500   2.153   .     S
C73    C77     1.360   .     S
C73    N85     1.360   .     D
C73    H89     0.950   .     S
C74    C78     1.360   .     S
C74    N86     1.360   .     D
C74    H90     0.950   .     S
C75    N87     1.360   .     D
C75    H91     0.950   .     S
C75    C377    1.360   1_554 S
C76    N88     1.360   .     D
C76    H92     0.950   .     S
C76    C178    1.360   .     S
C77    C79     1.500   .     D
C77    C175    1.360   .     S
C78    C80     1.500   .     D
C78    C376    1.360   1_554 S
C79    C83     1.390   .     S
C79    C182    1.390   .     S
C80    C84     1.390   .     S
C80    C381    1.390   1_554 S
C81    C83     1.390   .     D
C81    H93     0.950   .     S
C81    C180    1.390   .     S
C82    C84     1.390   .     D
C82    H94     0.950   .     S
C82    C379    1.390   1_554 S
C83    H95     0.950   .     S
C84    H96     0.950   .     S
N85    N187    1.360   .     S
N85    Co1697  2.166   .     S
N86    Co100   2.166   .     S
N86    N388    1.360   1_554 S
N87    N385    1.360   1_554 S
N87    Co1698  2.153   .     S
N88    N186    1.360   .     S
N88    Co1299  2.153   1_545 S
Co97   N1663   2.153   1_455 S
Co97   N1685   2.166   1_455 S
Co98   N1661   2.166   1_455 S
Co98   N1687   2.153   1_455 S
Co99   N415    2.153   .     S
Co99   N488    2.153   .     S
Co100  N1240   2.153   1_545 S
Co100  N1264   2.153   1_545 S
C101   C105    1.360   .     S
C101   N113    1.360   .     D
C101   H117    0.950   .     S
C102   C106    1.360   .     S
C102   N114    1.360   .     D
C102   H118    0.950   .     S
C103   C105    1.360   .     S
C103   N115    1.360   .     D
C103   H119    0.950   .     S
C104   C106    1.360   .     S
C104   N116    1.360   .     D
C104   H120    0.950   .     S
C105   C107    1.500   .     D
C106   C108    1.500   .     D
C107   C110    1.390   .     S
C107   C111    1.390   .     S
C108   C109    1.390   .     S
C108   C112    1.390   .     S
C109   C111    1.390   .     D
C109   H121    0.950   .     S
C110   C112    1.390   .     D
C110   H122    0.950   .     S
C111   H123    0.950   .     S
C112   H124    0.950   .     S
N113   N115    1.360   .     S
N113   Co200   2.166   .     S
N114   N116    1.360   .     S
N114   Co197   2.166   .     S
N115   Co1399  2.153   1_545 S
N116   Co198   2.153   .     S
C125   N137    1.360   .     D
C125   H141    0.950   .     S
C126   N138    1.360   .     D
C126   H142    0.950   .     S
C126   C230    1.360   .     S
C127   C129    1.360   .     S
C127   N139    1.360   .     D
C127   H143    0.950   .     S
C128   C130    1.360   .     S
C128   N140    1.360   .     D
C128   H144    0.950   .     S
C129   C131    1.500   .     D
C129   C225    1.360   .     S
C130   C132    1.500   .     D
C131   C134    1.390   .     S
C131   C235    1.390   .     S
C132   C133    1.390   .     S
C133   C135    1.390   .     D
C133   H145    0.950   .     S
C134   C136    1.390   .     D
C134   H146    0.950   .     S
C135   H147    0.950   .     S
C136   H148    0.950   .     S
C136   C232    1.390   .     S
N137   Co198   2.166   .     S
N138   Co199   2.166   .     S
N138   N240    1.360   .     S
N139   Co197   2.153   .     S
N139   N237    1.360   .     S
N140   Co600   2.153   .     S
C149   C153    1.360   .     S
C149   N161    1.360   .     D
C149   H165    0.950   .     S
C150   C154    1.360   .     S
C150   N162    1.360   .     D
C150   H166    0.950   .     S
C151   C153    1.360   .     S
C151   N163    1.360   .     D
C151   H167    0.950   .     S
C152   C154    1.360   .     S
C152   N164    1.360   .     D
C152   H168    0.950   .     S
C153   C155    1.500   .     D
C154   C156    1.500   .     D
C155   C158    1.390   .     S
C155   C159    1.390   .     S
C156   C157    1.390   .     S
C156   C160    1.390   .     S
C157   C159    1.390   .     D
C157   H169    0.950   .     S
C158   C160    1.390   .     D
C158   H170    0.950   .     S
C159   H171    0.950   .     S
C160   H172    0.950   .     S
N161   N163    1.360   .     S
N161   Co1798  2.166   .     S
N162   N164    1.360   .     S
N162   Co199   2.166   .     S
N163   Co1797  2.153   .     S
N164   Co600   2.153   .     S
C173   C177    1.360   .     S
C173   N185    1.360   .     D
C173   H189    0.950   .     S
C174   C178    1.360   .     S
C174   N186    1.360   .     D
C174   H190    0.950   .     S
C175   N187    1.360   .     D
C175   H191    0.950   .     S
C176   N188    1.360   .     D
C176   H192    0.950   .     S
C176   C278    1.360   .     S
C177   C179    1.500   .     D
C177   C275    1.360   .     S
C178   C180    1.500   .     D
C179   C183    1.390   .     S
C179   C282    1.390   .     S
C180   C184    1.390   .     S
C181   C183    1.390   .     D
C181   H193    0.950   .     S
C181   C280    1.390   .     S
C182   C184    1.390   .     D
C182   H194    0.950   .     S
C183   H195    0.950   .     S
C184   H196    0.950   .     S
N185   N287    1.360   .     S
N185   Co1797  2.166   .     S
N186   Co200   2.166   .     S
N187   Co1798  2.153   .     S
N188   N286    1.360   .     S
N188   Co1399  2.153   1_545 S
Co197  N1763   2.153   1_455 S
Co197  N1785   2.166   1_455 S
Co198  N1761   2.166   1_455 S
Co198  N1787   2.153   1_455 S
Co199  N515    2.153   .     S
Co199  N588    2.153   .     S
Co200  N1340   2.153   1_545 S
Co200  N1364   2.153   1_545 S
C201   C205    1.360   .     S
C201   N213    1.360   .     D
C201   H217    0.950   .     S
C202   C206    1.360   .     S
C202   N214    1.360   .     D
C202   H218    0.950   .     S
C203   C205    1.360   .     S
C203   N215    1.360   .     D
C203   H219    0.950   .     S
C204   C206    1.360   .     S
C204   N216    1.360   .     D
C204   H220    0.950   .     S
C205   C207    1.500   .     D
C206   C208    1.500   .     D
C207   C210    1.390   .     S
C207   C211    1.390   .     S
C208   C209    1.390   .     S
C208   C212    1.390   .     S
C209   C211    1.390   .     D
C209   H221    0.950   .     S
C210   C212    1.390   .     D
C210   H222    0.950   .     S
C211   H223    0.950   .     S
C212   H224    0.950   .     S
N213   N215    1.360   .     S
N213   Co300   2.166   .     S
N214   N216    1.360   .     S
N214   Co297   2.166   .     S
N215   Co1499  2.153   1_545 S
N216   Co298   2.153   .     S
C225   N237    1.360   .     D
C225   H241    0.950   .     S
C226   N238    1.360   .     D
C226   H242    0.950   .     S
C226   C330    1.360   .     S
C227   C229    1.360   .     S
C227   N239    1.360   .     D
C227   H243    0.950   .     S
C228   C230    1.360   .     S
C228   N240    1.360   .     D
C228   H244    0.950   .     S
C229   C231    1.500   .     D
C229   C325    1.360   .     S
C230   C232    1.500   .     D
C231   C234    1.390   .     S
C231   C335    1.390   .     S
C232   C233    1.390   .     S
C233   C235    1.390   .     D
C233   H245    0.950   .     S
C234   C236    1.390   .     D
C234   H246    0.950   .     S
C235   H247    0.950   .     S
C236   H248    0.950   .     S
C236   C332    1.390   .     S
N237   Co298   2.166   .     S
N238   Co299   2.166   .     S
N238   N340    1.360   .     S
N239   Co297   2.153   .     S
N239   N337    1.360   .     S
N240   Co700   2.153   .     S
C249   C253    1.360   .     S
C249   N261    1.360   .     D
C249   H265    0.950   .     S
C250   C254    1.360   .     S
C250   N262    1.360   .     D
C250   H266    0.950   .     S
C251   C253    1.360   .     S
C251   N263    1.360   .     D
C251   H267    0.950   .     S
C252   C254    1.360   .     S
C252   N264    1.360   .     D
C252   H268    0.950   .     S
C253   C255    1.500   .     D
C254   C256    1.500   .     D
C255   C258    1.390   .     S
C255   C259    1.390   .     S
C256   C257    1.390   .     S
C256   C260    1.390   .     S
C257   C259    1.390   .     D
C257   H269    0.950   .     S
C258   C260    1.390   .     D
C258   H270    0.950   .     S
C259   H271    0.950   .     S
C260   H272    0.950   .     S
N261   N263    1.360   .     S
N261   Co1898  2.166   .     S
N262   N264    1.360   .     S
N262   Co299   2.166   .     S
N263   Co1897  2.153   .     S
N264   Co700   2.153   .     S
C273   C277    1.360   .     S
C273   N285    1.360   .     D
C273   H289    0.950   .     S
C274   C278    1.360   .     S
C274   N286    1.360   .     D
C274   H290    0.950   .     S
C275   N287    1.360   .     D
C275   H291    0.950   .     S
C276   N288    1.360   .     D
C276   H292    0.950   .     S
C276   C378    1.360   .     S
C277   C279    1.500   .     D
C277   C375    1.360   .     S
C278   C280    1.500   .     D
C279   C283    1.390   .     S
C279   C382    1.390   .     S
C280   C284    1.390   .     S
C281   C283    1.390   .     D
C281   H293    0.950   .     S
C281   C380    1.390   .     S
C282   C284    1.390   .     D
C282   H294    0.950   .     S
C283   H295    0.950   .     S
C284   H296    0.950   .     S
N285   N387    1.360   .     S
N285   Co1897  2.166   .     S
N286   Co300   2.166   .     S
N287   Co1898  2.153   .     S
N288   N386    1.360   .     S
N288   Co1499  2.153   1_545 S
Co297  N1863   2.153   1_455 S
Co297  N1885   2.166   1_455 S
Co298  N1861   2.166   1_455 S
Co298  N1887   2.153   1_455 S
Co299  N615    2.153   .     S
Co299  N688    2.153   .     S
Co300  N1440   2.153   1_545 S
Co300  N1464   2.153   1_545 S
C301   C305    1.360   .     S
C301   N313    1.360   .     D
C301   H317    0.950   .     S
C302   C306    1.360   .     S
C302   N314    1.360   .     D
C302   H318    0.950   .     S
C303   C305    1.360   .     S
C303   N315    1.360   .     D
C303   H319    0.950   .     S
C304   C306    1.360   .     S
C304   N316    1.360   .     D
C304   H320    0.950   .     S
C305   C307    1.500   .     D
C306   C308    1.500   .     D
C307   C310    1.390   .     S
C307   C311    1.390   .     S
C308   C309    1.390   .     S
C308   C312    1.390   .     S
C309   C311    1.390   .     D
C309   H321    0.950   .     S
C310   C312    1.390   .     D
C310   H322    0.950   .     S
C311   H323    0.950   .     S
C312   H324    0.950   .     S
N313   N315    1.360   .     S
N313   Co400   2.166   .     S
N314   N316    1.360   .     S
N314   Co397   2.166   .     S
N315   Co1599  2.153   1_545 S
N316   Co398   2.153   .     S
C325   N337    1.360   .     D
C325   H341    0.950   .     S
C326   C30     1.360   1_556 S
C326   N338    1.360   .     D
C326   H342    0.950   .     S
C327   C329    1.360   .     S
C327   N339    1.360   .     D
C327   H343    0.950   .     S
C328   C330    1.360   .     S
C328   N340    1.360   .     D
C328   H344    0.950   .     S
C329   C25     1.360   1_556 S
C329   C331    1.500   .     D
C330   C332    1.500   .     D
C331   C35     1.390   1_556 S
C331   C334    1.390   .     S
C332   C333    1.390   .     S
C333   C335    1.390   .     D
C333   H345    0.950   .     S
C334   C336    1.390   .     D
C334   H346    0.950   .     S
C335   H347    0.950   .     S
C336   C32     1.390   1_556 S
C336   H348    0.950   .     S
N337   Co398   2.166   .     S
N338   N40     1.360   1_556 S
N338   Co399   2.166   .     S
N339   N37     1.360   1_556 S
N339   Co397   2.153   .     S
N340   Co800   2.153   .     S
C349   C353    1.360   .     S
C349   N361    1.360   .     D
C349   H365    0.950   .     S
C350   C354    1.360   .     S
C350   N362    1.360   .     D
C350   H366    0.950   .     S
C351   C353    1.360   .     S
C351   N363    1.360   .     D
C351   H367    0.950   .     S
C352   C354    1.360   .     S
C352   N364    1.360   .     D
C352   H368    0.950   .     S
C353   C355    1.500   .     D
C354   C356    1.500   .     D
C355   C358    1.390   .     S
C355   C359    1.390   .     S
C356   C357    1.390   .     S
C356   C360    1.390   .     S
C357   C359    1.390   .     D
C357   H369    0.950   .     S
C358   C360    1.390   .     D
C358   H370    0.950   .     S
C359   H371    0.950   .     S
C360   H372    0.950   .     S
N361   N363    1.360   .     S
N361   Co1998  2.166   .     S
N362   N364    1.360   .     S
N362   Co399   2.166   .     S
N363   Co1997  2.153   .     S
N364   Co800   2.153   .     S
C373   C377    1.360   .     S
C373   N385    1.360   .     D
C373   H389    0.950   .     S
C374   C378    1.360   .     S
C374   N386    1.360   .     D
C374   H390    0.950   .     S
C375   N387    1.360   .     D
C375   H391    0.950   .     S
C376   C78     1.360   1_556 S
C376   N388    1.360   .     D
C376   H392    0.950   .     S
C377   C75     1.360   1_556 S
C377   C379    1.500   .     D
C378   C380    1.500   .     D
C379   C82     1.390   1_556 S
C379   C383    1.390   .     S
C380   C384    1.390   .     S
C381   C80     1.390   1_556 S
C381   C383    1.390   .     D
C381   H393    0.950   .     S
C382   C384    1.390   .     D
C382   H394    0.950   .     S
C383   H395    0.950   .     S
C384   H396    0.950   .     S
N385   N87     1.360   1_556 S
N385   Co1997  2.166   .     S
N386   Co400   2.166   .     S
N387   Co1998  2.153   .     S
N388   N86     1.360   1_556 S
N388   Co1599  2.153   1_545 S
Co397  N1963   2.153   1_455 S
Co397  N1985   2.166   1_455 S
Co398  N1961   2.166   1_455 S
Co398  N1987   2.153   1_455 S
Co399  N715    2.153   .     S
Co399  N788    2.153   .     S
Co400  N1540   2.153   1_545 S
Co400  N1564   2.153   1_545 S
C401   C405    1.360   .     S
C401   N413    1.360   .     D
C401   H417    0.950   .     S
C402   C406    1.360   .     S
C402   N414    1.360   .     D
C402   H418    0.950   .     S
C403   C405    1.360   .     S
C403   N415    1.360   .     D
C403   H419    0.950   .     S
C404   C406    1.360   .     S
C404   N416    1.360   .     D
C404   H420    0.950   .     S
C405   C407    1.500   .     D
C406   C408    1.500   .     D
C407   C410    1.390   .     S
C407   C411    1.390   .     S
C408   C409    1.390   .     S
C408   C412    1.390   .     S
C409   C411    1.390   .     D
C409   H421    0.950   .     S
C410   C412    1.390   .     D
C410   H422    0.950   .     S
C411   H423    0.950   .     S
C412   H424    0.950   .     S
N413   N415    1.360   .     S
N413   Co500   2.166   .     S
N414   N416    1.360   .     S
N414   Co497   2.166   .     S
N416   Co498   2.153   .     S
C425   N437    1.360   .     D
C425   H441    0.950   .     S
C425   C729    1.360   1_554 S
C426   N438    1.360   .     D
C426   H442    0.950   .     S
C426   C530    1.360   .     S
C427   C429    1.360   .     S
C427   N439    1.360   .     D
C427   H443    0.950   .     S
C428   C430    1.360   .     S
C428   N440    1.360   .     D
C428   H444    0.950   .     S
C429   C431    1.500   .     D
C429   C525    1.360   .     S
C430   C432    1.500   .     D
C430   C726    1.360   1_554 S
C431   C434    1.390   .     S
C431   C535    1.390   .     S
C432   C433    1.390   .     S
C432   C736    1.390   1_554 S
C433   C435    1.390   .     D
C433   H445    0.950   .     S
C434   C436    1.390   .     D
C434   H446    0.950   .     S
C435   H447    0.950   .     S
C435   C731    1.390   1_554 S
C436   H448    0.950   .     S
C436   C532    1.390   .     S
N437   Co498   2.166   .     S
N437   N739    1.360   1_554 S
N438   Co499   2.166   .     S
N438   N540    1.360   .     S
N439   Co497   2.153   .     S
N439   N537    1.360   .     S
N440   N738    1.360   1_554 S
N440   Co900   2.153   .     S
C449   C453    1.360   .     S
C449   N461    1.360   .     D
C449   H465    0.950   .     S
C450   C454    1.360   .     S
C450   N462    1.360   .     D
C450   H466    0.950   .     S
C451   C453    1.360   .     S
C451   N463    1.360   .     D
C451   H467    0.950   .     S
C452   C454    1.360   .     S
C452   N464    1.360   .     D
C452   H468    0.950   .     S
C453   C455    1.500   .     D
C454   C456    1.500   .     D
C455   C458    1.390   .     S
C455   C459    1.390   .     S
C456   C457    1.390   .     S
C456   C460    1.390   .     S
C457   C459    1.390   .     D
C457   H469    0.950   .     S
C458   C460    1.390   .     D
C458   H470    0.950   .     S
C459   H471    0.950   .     S
C460   H472    0.950   .     S
N461   N463    1.360   .     S
N461   Co2098  2.166   .     S
N462   N464    1.360   .     S
N462   Co499   2.166   .     S
N463   Co2097  2.153   .     S
N464   Co900   2.153   .     S
C473   C477    1.360   .     S
C473   N485    1.360   .     D
C473   H489    0.950   .     S
C474   C478    1.360   .     S
C474   N486    1.360   .     D
C474   H490    0.950   .     S
C475   N487    1.360   .     D
C475   H491    0.950   .     S
C475   C777    1.360   1_554 S
C476   N488    1.360   .     D
C476   H492    0.950   .     S
C476   C578    1.360   .     S
C477   C479    1.500   .     D
C477   C575    1.360   .     S
C478   C480    1.500   .     D
C478   C776    1.360   1_554 S
C479   C483    1.390   .     S
C479   C582    1.390   .     S
C480   C484    1.390   .     S
C480   C781    1.390   1_554 S
C481   C483    1.390   .     D
C481   H493    0.950   .     S
C481   C580    1.390   .     S
C482   C484    1.390   .     D
C482   H494    0.950   .     S
C482   C779    1.390   1_554 S
C483   H495    0.950   .     S
C484   H496    0.950   .     S
N485   N587    1.360   .     S
N485   Co2097  2.166   .     S
N486   Co500   2.166   .     S
N486   N788    1.360   1_554 S
N487   N785    1.360   1_554 S
N487   Co2098  2.153   .     S
N488   N586    1.360   .     S
Co497  N2063   2.153   1_455 S
Co497  N2085   2.166   1_455 S
Co498  N2061   2.166   1_455 S
Co498  N2087   2.153   1_455 S
Co499  N815    2.153   .     S
Co499  N888    2.153   .     S
C501   C505    1.360   .     S
C501   N513    1.360   .     D
C501   H517    0.950   .     S
C502   C506    1.360   .     S
C502   N514    1.360   .     D
C502   H518    0.950   .     S
C503   C505    1.360   .     S
C503   N515    1.360   .     D
C503   H519    0.950   .     S
C504   C506    1.360   .     S
C504   N516    1.360   .     D
C504   H520    0.950   .     S
C505   C507    1.500   .     D
C506   C508    1.500   .     D
C507   C510    1.390   .     S
C507   C511    1.390   .     S
C508   C509    1.390   .     S
C508   C512    1.390   .     S
C509   C511    1.390   .     D
C509   H521    0.950   .     S
C510   C512    1.390   .     D
C510   H522    0.950   .     S
C511   H523    0.950   .     S
C512   H524    0.950   .     S
N513   N515    1.360   .     S
N513   Co600   2.166   .     S
N514   N516    1.360   .     S
N514   Co597   2.166   .     S
N516   Co598   2.153   .     S
C525   N537    1.360   .     D
C525   H541    0.950   .     S
C526   N538    1.360   .     D
C526   H542    0.950   .     S
C526   C630    1.360   .     S
C527   C529    1.360   .     S
C527   N539    1.360   .     D
C527   H543    0.950   .     S
C528   C530    1.360   .     S
C528   N540    1.360   .     D
C528   H544    0.950   .     S
C529   C531    1.500   .     D
C529   C625    1.360   .     S
C530   C532    1.500   .     D
C531   C534    1.390   .     S
C531   C635    1.390   .     S
C532   C533    1.390   .     S
C533   C535    1.390   .     D
C533   H545    0.950   .     S
C534   C536    1.390   .     D
C534   H546    0.950   .     S
C535   H547    0.950   .     S
C536   H548    0.950   .     S
C536   C632    1.390   .     S
N537   Co598   2.166   .     S
N538   Co599   2.166   .     S
N538   N640    1.360   .     S
N539   Co597   2.153   .     S
N539   N637    1.360   .     S
N540   Co1000  2.153   .     S
C549   C553    1.360   .     S
C549   N561    1.360   .     D
C549   H565    0.950   .     S
C550   C554    1.360   .     S
C550   N562    1.360   .     D
C550   H566    0.950   .     S
C551   C553    1.360   .     S
C551   N563    1.360   .     D
C551   H567    0.950   .     S
C552   C554    1.360   .     S
C552   N564    1.360   .     D
C552   H568    0.950   .     S
C553   C555    1.500   .     D
C554   C556    1.500   .     D
C555   C558    1.390   .     S
C555   C559    1.390   .     S
C556   C557    1.390   .     S
C556   C560    1.390   .     S
C557   C559    1.390   .     D
C557   H569    0.950   .     S
C558   C560    1.390   .     D
C558   H570    0.950   .     S
C559   H571    0.950   .     S
C560   H572    0.950   .     S
N561   N563    1.360   .     S
N561   Co2198  2.166   .     S
N562   N564    1.360   .     S
N562   Co599   2.166   .     S
N563   Co2197  2.153   .     S
N564   Co1000  2.153   .     S
C573   C577    1.360   .     S
C573   N585    1.360   .     D
C573   H589    0.950   .     S
C574   C578    1.360   .     S
C574   N586    1.360   .     D
C574   H590    0.950   .     S
C575   N587    1.360   .     D
C575   H591    0.950   .     S
C576   N588    1.360   .     D
C576   H592    0.950   .     S
C576   C678    1.360   .     S
C577   C579    1.500   .     D
C577   C675    1.360   .     S
C578   C580    1.500   .     D
C579   C583    1.390   .     S
C579   C682    1.390   .     S
C580   C584    1.390   .     S
C581   C583    1.390   .     D
C581   H593    0.950   .     S
C581   C680    1.390   .     S
C582   C584    1.390   .     D
C582   H594    0.950   .     S
C583   H595    0.950   .     S
C584   H596    0.950   .     S
N585   N687    1.360   .     S
N585   Co2197  2.166   .     S
N586   Co600   2.166   .     S
N587   Co2198  2.153   .     S
N588   N686    1.360   .     S
Co597  N2163   2.153   1_455 S
Co597  N2185   2.166   1_455 S
Co598  N2161   2.166   1_455 S
Co598  N2187   2.153   1_455 S
Co599  N915    2.153   .     S
Co599  N988    2.153   .     S
C601   C605    1.360   .     S
C601   N613    1.360   .     D
C601   H617    0.950   .     S
C602   C606    1.360   .     S
C602   N614    1.360   .     D
C602   H618    0.950   .     S
C603   C605    1.360   .     S
C603   N615    1.360   .     D
C603   H619    0.950   .     S
C604   C606    1.360   .     S
C604   N616    1.360   .     D
C604   H620    0.950   .     S
C605   C607    1.500   .     D
C606   C608    1.500   .     D
C607   C610    1.390   .     S
C607   C611    1.390   .     S
C608   C609    1.390   .     S
C608   C612    1.390   .     S
C609   C611    1.390   .     D
C609   H621    0.950   .     S
C610   C612    1.390   .     D
C610   H622    0.950   .     S
C611   H623    0.950   .     S
C612   H624    0.950   .     S
N613   N615    1.360   .     S
N613   Co700   2.166   .     S
N614   N616    1.360   .     S
N614   Co697   2.166   .     S
N616   Co698   2.153   .     S
C625   N637    1.360   .     D
C625   H641    0.950   .     S
C626   N638    1.360   .     D
C626   H642    0.950   .     S
C626   C730    1.360   .     S
C627   C629    1.360   .     S
C627   N639    1.360   .     D
C627   H643    0.950   .     S
C628   C630    1.360   .     S
C628   N640    1.360   .     D
C628   H644    0.950   .     S
C629   C631    1.500   .     D
C629   C725    1.360   .     S
C630   C632    1.500   .     D
C631   C634    1.390   .     S
C631   C735    1.390   .     S
C632   C633    1.390   .     S
C633   C635    1.390   .     D
C633   H645    0.950   .     S
C634   C636    1.390   .     D
C634   H646    0.950   .     S
C635   H647    0.950   .     S
C636   H648    0.950   .     S
C636   C732    1.390   .     S
N637   Co698   2.166   .     S
N638   Co699   2.166   .     S
N638   N740    1.360   .     S
N639   Co697   2.153   .     S
N639   N737    1.360   .     S
N640   Co1100  2.153   .     S
C649   C653    1.360   .     S
C649   N661    1.360   .     D
C649   H665    0.950   .     S
C650   C654    1.360   .     S
C650   N662    1.360   .     D
C650   H666    0.950   .     S
C651   C653    1.360   .     S
C651   N663    1.360   .     D
C651   H667    0.950   .     S
C652   C654    1.360   .     S
C652   N664    1.360   .     D
C652   H668    0.950   .     S
C653   C655    1.500   .     D
C654   C656    1.500   .     D
C655   C658    1.390   .     S
C655   C659    1.390   .     S
C656   C657    1.390   .     S
C656   C660    1.390   .     S
C657   C659    1.390   .     D
C657   H669    0.950   .     S
C658   C660    1.390   .     D
C658   H670    0.950   .     S
C659   H671    0.950   .     S
C660   H672    0.950   .     S
N661   N663    1.360   .     S
N661   Co2298  2.166   .     S
N662   N664    1.360   .     S
N662   Co699   2.166   .     S
N663   Co2297  2.153   .     S
N664   Co1100  2.153   .     S
C673   C677    1.360   .     S
C673   N685    1.360   .     D
C673   H689    0.950   .     S
C674   C678    1.360   .     S
C674   N686    1.360   .     D
C674   H690    0.950   .     S
C675   N687    1.360   .     D
C675   H691    0.950   .     S
C676   N688    1.360   .     D
C676   H692    0.950   .     S
C676   C778    1.360   .     S
C677   C679    1.500   .     D
C677   C775    1.360   .     S
C678   C680    1.500   .     D
C679   C683    1.390   .     S
C679   C782    1.390   .     S
C680   C684    1.390   .     S
C681   C683    1.390   .     D
C681   H693    0.950   .     S
C681   C780    1.390   .     S
C682   C684    1.390   .     D
C682   H694    0.950   .     S
C683   H695    0.950   .     S
C684   H696    0.950   .     S
N685   N787    1.360   .     S
N685   Co2297  2.166   .     S
N686   Co700   2.166   .     S
N687   Co2298  2.153   .     S
N688   N786    1.360   .     S
Co697  N2263   2.153   1_455 S
Co697  N2285   2.166   1_455 S
Co698  N2261   2.166   1_455 S
Co698  N2287   2.153   1_455 S
Co699  N1015   2.153   .     S
Co699  N1088   2.153   .     S
C701   C705    1.360   .     S
C701   N713    1.360   .     D
C701   H717    0.950   .     S
C702   C706    1.360   .     S
C702   N714    1.360   .     D
C702   H718    0.950   .     S
C703   C705    1.360   .     S
C703   N715    1.360   .     D
C703   H719    0.950   .     S
C704   C706    1.360   .     S
C704   N716    1.360   .     D
C704   H720    0.950   .     S
C705   C707    1.500   .     D
C706   C708    1.500   .     D
C707   C710    1.390   .     S
C707   C711    1.390   .     S
C708   C709    1.390   .     S
C708   C712    1.390   .     S
C709   C711    1.390   .     D
C709   H721    0.950   .     S
C710   C712    1.390   .     D
C710   H722    0.950   .     S
C711   H723    0.950   .     S
C712   H724    0.950   .     S
N713   N715    1.360   .     S
N713   Co800   2.166   .     S
N714   N716    1.360   .     S
N714   Co797   2.166   .     S
N716   Co798   2.153   .     S
C725   N737    1.360   .     D
C725   H741    0.950   .     S
C726   C430    1.360   1_556 S
C726   N738    1.360   .     D
C726   H742    0.950   .     S
C727   C729    1.360   .     S
C727   N739    1.360   .     D
C727   H743    0.950   .     S
C728   C730    1.360   .     S
C728   N740    1.360   .     D
C728   H744    0.950   .     S
C729   C425    1.360   1_556 S
C729   C731    1.500   .     D
C730   C732    1.500   .     D
C731   C435    1.390   1_556 S
C731   C734    1.390   .     S
C732   C733    1.390   .     S
C733   C735    1.390   .     D
C733   H745    0.950   .     S
C734   C736    1.390   .     D
C734   H746    0.950   .     S
C735   H747    0.950   .     S
C736   C432    1.390   1_556 S
C736   H748    0.950   .     S
N737   Co798   2.166   .     S
N738   N440    1.360   1_556 S
N738   Co799   2.166   .     S
N739   N437    1.360   1_556 S
N739   Co797   2.153   .     S
N740   Co1200  2.153   .     S
C749   C753    1.360   .     S
C749   N761    1.360   .     D
C749   H765    0.950   .     S
C750   C754    1.360   .     S
C750   N762    1.360   .     D
C750   H766    0.950   .     S
C751   C753    1.360   .     S
C751   N763    1.360   .     D
C751   H767    0.950   .     S
C752   C754    1.360   .     S
C752   N764    1.360   .     D
C752   H768    0.950   .     S
C753   C755    1.500   .     D
C754   C756    1.500   .     D
C755   C758    1.390   .     S
C755   C759    1.390   .     S
C756   C757    1.390   .     S
C756   C760    1.390   .     S
C757   C759    1.390   .     D
C757   H769    0.950   .     S
C758   C760    1.390   .     D
C758   H770    0.950   .     S
C759   H771    0.950   .     S
C760   H772    0.950   .     S
N761   N763    1.360   .     S
N761   Co2398  2.166   .     S
N762   N764    1.360   .     S
N762   Co799   2.166   .     S
N763   Co2397  2.153   .     S
N764   Co1200  2.153   .     S
C773   C777    1.360   .     S
C773   N785    1.360   .     D
C773   H789    0.950   .     S
C774   C778    1.360   .     S
C774   N786    1.360   .     D
C774   H790    0.950   .     S
C775   N787    1.360   .     D
C775   H791    0.950   .     S
C776   C478    1.360   1_556 S
C776   N788    1.360   .     D
C776   H792    0.950   .     S
C777   C475    1.360   1_556 S
C777   C779    1.500   .     D
C778   C780    1.500   .     D
C779   C482    1.390   1_556 S
C779   C783    1.390   .     S
C780   C784    1.390   .     S
C781   C480    1.390   1_556 S
C781   C783    1.390   .     D
C781   H793    0.950   .     S
C782   C784    1.390   .     D
C782   H794    0.950   .     S
C783   H795    0.950   .     S
C784   H796    0.950   .     S
N785   N487    1.360   1_556 S
N785   Co2397  2.166   .     S
N786   Co800   2.166   .     S
N787   Co2398  2.153   .     S
N788   N486    1.360   1_556 S
Co797  N2363   2.153   1_455 S
Co797  N2385   2.166   1_455 S
Co798  N2361   2.166   1_455 S
Co798  N2387   2.153   1_455 S
Co799  N1115   2.153   .     S
Co799  N1188   2.153   .     S
C801   C805    1.360   .     S
C801   N813    1.360   .     D
C801   H817    0.950   .     S
C802   C806    1.360   .     S
C802   N814    1.360   .     D
C802   H818    0.950   .     S
C803   C805    1.360   .     S
C803   N815    1.360   .     D
C803   H819    0.950   .     S
C804   C806    1.360   .     S
C804   N816    1.360   .     D
C804   H820    0.950   .     S
C805   C807    1.500   .     D
C806   C808    1.500   .     D
C807   C810    1.390   .     S
C807   C811    1.390   .     S
C808   C809    1.390   .     S
C808   C812    1.390   .     S
C809   C811    1.390   .     D
C809   H821    0.950   .     S
C810   C812    1.390   .     D
C810   H822    0.950   .     S
C811   H823    0.950   .     S
C812   H824    0.950   .     S
N813   N815    1.360   .     S
N813   Co900   2.166   .     S
N814   N816    1.360   .     S
N814   Co897   2.166   .     S
N816   Co898   2.153   .     S
C825   N837    1.360   .     D
C825   H841    0.950   .     S
C825   C1129   1.360   1_554 S
C826   N838    1.360   .     D
C826   H842    0.950   .     S
C826   C930    1.360   .     S
C827   C829    1.360   .     S
C827   N839    1.360   .     D
C827   H843    0.950   .     S
C828   C830    1.360   .     S
C828   N840    1.360   .     D
C828   H844    0.950   .     S
C829   C831    1.500   .     D
C829   C925    1.360   .     S
C830   C832    1.500   .     D
C830   C1126   1.360   1_554 S
C831   C834    1.390   .     S
C831   C935    1.390   .     S
C832   C833    1.390   .     S
C832   C1136   1.390   1_554 S
C833   C835    1.390   .     D
C833   H845    0.950   .     S
C834   C836    1.390   .     D
C834   H846    0.950   .     S
C835   H847    0.950   .     S
C835   C1131   1.390   1_554 S
C836   H848    0.950   .     S
C836   C932    1.390   .     S
N837   Co898   2.166   .     S
N837   N1139   1.360   1_554 S
N838   Co899   2.166   .     S
N838   N940    1.360   .     S
N839   Co897   2.153   .     S
N839   N937    1.360   .     S
N840   N1138   1.360   1_554 S
N840   Co1300  2.153   .     S
C849   C853    1.360   .     S
C849   N861    1.360   .     D
C849   H865    0.950   .     S
C850   C854    1.360   .     S
C850   N862    1.360   .     D
C850   H866    0.950   .     S
C851   C853    1.360   .     S
C851   N863    1.360   .     D
C851   H867    0.950   .     S
C852   C854    1.360   .     S
C852   N864    1.360   .     D
C852   H868    0.950   .     S
C853   C855    1.500   .     D
C854   C856    1.500   .     D
C855   C858    1.390   .     S
C855   C859    1.390   .     S
C856   C857    1.390   .     S
C856   C860    1.390   .     S
C857   C859    1.390   .     D
C857   H869    0.950   .     S
C858   C860    1.390   .     D
C858   H870    0.950   .     S
C859   H871    0.950   .     S
C860   H872    0.950   .     S
N861   N863    1.360   .     S
N861   Co2498  2.166   .     S
N862   N864    1.360   .     S
N862   Co899   2.166   .     S
N863   Co2497  2.153   .     S
N864   Co1300  2.153   .     S
C873   C877    1.360   .     S
C873   N885    1.360   .     D
C873   H889    0.950   .     S
C874   C878    1.360   .     S
C874   N886    1.360   .     D
C874   H890    0.950   .     S
C875   N887    1.360   .     D
C875   H891    0.950   .     S
C875   C1177   1.360   1_554 S
C876   N888    1.360   .     D
C876   H892    0.950   .     S
C876   C978    1.360   .     S
C877   C879    1.500   .     D
C877   C975    1.360   .     S
C878   C880    1.500   .     D
C878   C1176   1.360   1_554 S
C879   C883    1.390   .     S
C879   C982    1.390   .     S
C880   C884    1.390   .     S
C880   C1181   1.390   1_554 S
C881   C883    1.390   .     D
C881   H893    0.950   .     S
C881   C980    1.390   .     S
C882   C884    1.390   .     D
C882   H894    0.950   .     S
C882   C1179   1.390   1_554 S
C883   H895    0.950   .     S
C884   H896    0.950   .     S
N885   N987    1.360   .     S
N885   Co2497  2.166   .     S
N886   Co900   2.166   .     S
N886   N1188   1.360   1_554 S
N887   N1185   1.360   1_554 S
N887   Co2498  2.153   .     S
N888   N986    1.360   .     S
Co897  N2463   2.153   1_455 S
Co897  N2485   2.166   1_455 S
Co898  N2461   2.166   1_455 S
Co898  N2487   2.153   1_455 S
Co899  N1215   2.153   .     S
Co899  N1288   2.153   .     S
C901   C905    1.360   .     S
C901   N913    1.360   .     D
C901   H917    0.950   .     S
C902   C906    1.360   .     S
C902   N914    1.360   .     D
C902   H918    0.950   .     S
C903   C905    1.360   .     S
C903   N915    1.360   .     D
C903   H919    0.950   .     S
C904   C906    1.360   .     S
C904   N916    1.360   .     D
C904   H920    0.950   .     S
C905   C907    1.500   .     D
C906   C908    1.500   .     D
C907   C910    1.390   .     S
C907   C911    1.390   .     S
C908   C909    1.390   .     S
C908   C912    1.390   .     S
C909   C911    1.390   .     D
C909   H921    0.950   .     S
C910   C912    1.390   .     D
C910   H922    0.950   .     S
C911   H923    0.950   .     S
C912   H924    0.950   .     S
N913   N915    1.360   .     S
N913   Co1000  2.166   .     S
N914   N916    1.360   .     S
N914   Co997   2.166   .     S
N916   Co998   2.153   .     S
C925   N937    1.360   .     D
C925   H941    0.950   .     S
C926   N938    1.360   .     D
C926   H942    0.950   .     S
C926   C1030   1.360   .     S
C927   C929    1.360   .     S
C927   N939    1.360   .     D
C927   H943    0.950   .     S
C928   C930    1.360   .     S
C928   N940    1.360   .     D
C928   H944    0.950   .     S
C929   C931    1.500   .     D
C929   C1025   1.360   .     S
C930   C932    1.500   .     D
C931   C934    1.390   .     S
C931   C1035   1.390   .     S
C932   C933    1.390   .     S
C933   C935    1.390   .     D
C933   H945    0.950   .     S
C934   C936    1.390   .     D
C934   H946    0.950   .     S
C935   H947    0.950   .     S
C936   H948    0.950   .     S
C936   C1032   1.390   .     S
N937   Co998   2.166   .     S
N938   Co999   2.166   .     S
N938   N1040   1.360   .     S
N939   Co997   2.153   .     S
N939   N1037   1.360   .     S
N940   Co1400  2.153   .     S
C949   C953    1.360   .     S
C949   N961    1.360   .     D
C949   H965    0.950   .     S
C950   C954    1.360   .     S
C950   N962    1.360   .     D
C950   H966    0.950   .     S
C951   C953    1.360   .     S
C951   N963    1.360   .     D
C951   H967    0.950   .     S
C952   C954    1.360   .     S
C952   N964    1.360   .     D
C952   H968    0.950   .     S
C953   C955    1.500   .     D
C954   C956    1.500   .     D
C955   C958    1.390   .     S
C955   C959    1.390   .     S
C956   C957    1.390   .     S
C956   C960    1.390   .     S
C957   C959    1.390   .     D
C957   H969    0.950   .     S
C958   C960    1.390   .     D
C958   H970    0.950   .     S
C959   H971    0.950   .     S
C960   H972    0.950   .     S
N961   N963    1.360   .     S
N961   Co2598  2.166   .     S
N962   N964    1.360   .     S
N962   Co999   2.166   .     S
N963   Co2597  2.153   .     S
N964   Co1400  2.153   .     S
C973   C977    1.360   .     S
C973   N985    1.360   .     D
C973   H989    0.950   .     S
C974   C978    1.360   .     S
C974   N986    1.360   .     D
C974   H990    0.950   .     S
C975   N987    1.360   .     D
C975   H991    0.950   .     S
C976   N988    1.360   .     D
C976   H992    0.950   .     S
C976   C1078   1.360   .     S
C977   C979    1.500   .     D
C977   C1075   1.360   .     S
C978   C980    1.500   .     D
C979   C983    1.390   .     S
C979   C1082   1.390   .     S
C980   C984    1.390   .     S
C981   C983    1.390   .     D
C981   H993    0.950   .     S
C981   C1080   1.390   .     S
C982   C984    1.390   .     D
C982   H994    0.950   .     S
C983   H995    0.950   .     S
C984   H996    0.950   .     S
N985   N1087   1.360   .     S
N985   Co2597  2.166   .     S
N986   Co1000  2.166   .     S
N987   Co2598  2.153   .     S
N988   N1086   1.360   .     S
Co997  N2563   2.153   1_455 S
Co997  N2585   2.166   1_455 S
Co998  N2561   2.166   1_455 S
Co998  N2587   2.153   1_455 S
Co999  N1315   2.153   .     S
Co999  N1388   2.153   .     S
C1001  C1005   1.360   .     S
C1001  N1013   1.360   .     D
C1001  H1017   0.950   .     S
C1002  C1006   1.360   .     S
C1002  N1014   1.360   .     D
C1002  H1018   0.950   .     S
C1003  C1005   1.360   .     S
C1003  N1015   1.360   .     D
C1003  H1019   0.950   .     S
C1004  C1006   1.360   .     S
C1004  N1016   1.360   .     D
C1004  H1020   0.950   .     S
C1005  C1007   1.500   .     D
C1006  C1008   1.500   .     D
C1007  C1010   1.390   .     S
C1007  C1011   1.390   .     S
C1008  C1009   1.390   .     S
C1008  C1012   1.390   .     S
C1009  C1011   1.390   .     D
C1009  H1021   0.950   .     S
C1010  C1012   1.390   .     D
C1010  H1022   0.950   .     S
C1011  H1023   0.950   .     S
C1012  H1024   0.950   .     S
N1013  N1015   1.360   .     S
N1013  Co1100  2.166   .     S
N1014  N1016   1.360   .     S
N1014  Co1097  2.166   .     S
N1016  Co1098  2.153   .     S
C1025  N1037   1.360   .     D
C1025  H1041   0.950   .     S
C1026  N1038   1.360   .     D
C1026  H1042   0.950   .     S
C1026  C1130   1.360   .     S
C1027  C1029   1.360   .     S
C1027  N1039   1.360   .     D
C1027  H1043   0.950   .     S
C1028  C1030   1.360   .     S
C1028  N1040   1.360   .     D
C1028  H1044   0.950   .     S
C1029  C1031   1.500   .     D
C1029  C1125   1.360   .     S
C1030  C1032   1.500   .     D
C1031  C1034   1.390   .     S
C1031  C1135   1.390   .     S
C1032  C1033   1.390   .     S
C1033  C1035   1.390   .     D
C1033  H1045   0.950   .     S
C1034  C1036   1.390   .     D
C1034  H1046   0.950   .     S
C1035  H1047   0.950   .     S
C1036  H1048   0.950   .     S
C1036  C1132   1.390   .     S
N1037  Co1098  2.166   .     S
N1038  Co1099  2.166   .     S
N1038  N1140   1.360   .     S
N1039  Co1097  2.153   .     S
N1039  N1137   1.360   .     S
N1040  Co1500  2.153   .     S
C1049  C1053   1.360   .     S
C1049  N1061   1.360   .     D
C1049  H1065   0.950   .     S
C1050  C1054   1.360   .     S
C1050  N1062   1.360   .     D
C1050  H1066   0.950   .     S
C1051  C1053   1.360   .     S
C1051  N1063   1.360   .     D
C1051  H1067   0.950   .     S
C1052  C1054   1.360   .     S
C1052  N1064   1.360   .     D
C1052  H1068   0.950   .     S
C1053  C1055   1.500   .     D
C1054  C1056   1.500   .     D
C1055  C1058   1.390   .     S
C1055  C1059   1.390   .     S
C1056  C1057   1.390   .     S
C1056  C1060   1.390   .     S
C1057  C1059   1.390   .     D
C1057  H1069   0.950   .     S
C1058  C1060   1.390   .     D
C1058  H1070   0.950   .     S
C1059  H1071   0.950   .     S
C1060  H1072   0.950   .     S
N1061  N1063   1.360   .     S
N1061  Co2698  2.166   .     S
N1062  N1064   1.360   .     S
N1062  Co1099  2.166   .     S
N1063  Co2697  2.153   .     S
N1064  Co1500  2.153   .     S
C1073  C1077   1.360   .     S
C1073  N1085   1.360   .     D
C1073  H1089   0.950   .     S
C1074  C1078   1.360   .     S
C1074  N1086   1.360   .     D
C1074  H1090   0.950   .     S
C1075  N1087   1.360   .     D
C1075  H1091   0.950   .     S
C1076  N1088   1.360   .     D
C1076  H1092   0.950   .     S
C1076  C1178   1.360   .     S
C1077  C1079   1.500   .     D
C1077  C1175   1.360   .     S
C1078  C1080   1.500   .     D
C1079  C1083   1.390   .     S
C1079  C1182   1.390   .     S
C1080  C1084   1.390   .     S
C1081  C1083   1.390   .     D
C1081  H1093   0.950   .     S
C1081  C1180   1.390   .     S
C1082  C1084   1.390   .     D
C1082  H1094   0.950   .     S
C1083  H1095   0.950   .     S
C1084  H1096   0.950   .     S
N1085  N1187   1.360   .     S
N1085  Co2697  2.166   .     S
N1086  Co1100  2.166   .     S
N1087  Co2698  2.153   .     S
N1088  N1186   1.360   .     S
Co1097 N2663   2.153   1_455 S
Co1097 N2685   2.166   1_455 S
Co1098 N2661   2.166   1_455 S
Co1098 N2687   2.153   1_455 S
Co1099 N1415   2.153   .     S
Co1099 N1488   2.153   .     S
C1101  C1105   1.360   .     S
C1101  N1113   1.360   .     D
C1101  H1117   0.950   .     S
C1102  C1106   1.360   .     S
C1102  N1114   1.360   .     D
C1102  H1118   0.950   .     S
C1103  C1105   1.360   .     S
C1103  N1115   1.360   .     D
C1103  H1119   0.950   .     S
C1104  C1106   1.360   .     S
C1104  N1116   1.360   .     D
C1104  H1120   0.950   .     S
C1105  C1107   1.500   .     D
C1106  C1108   1.500   .     D
C1107  C1110   1.390   .     S
C1107  C1111   1.390   .     S
C1108  C1109   1.390   .     S
C1108  C1112   1.390   .     S
C1109  C1111   1.390   .     D
C1109  H1121   0.950   .     S
C1110  C1112   1.390   .     D
C1110  H1122   0.950   .     S
C1111  H1123   0.950   .     S
C1112  H1124   0.950   .     S
N1113  N1115   1.360   .     S
N1113  Co1200  2.166   .     S
N1114  N1116   1.360   .     S
N1114  Co1197  2.166   .     S
N1116  Co1198  2.153   .     S
C1125  N1137   1.360   .     D
C1125  H1141   0.950   .     S
C1126  C830    1.360   1_556 S
C1126  N1138   1.360   .     D
C1126  H1142   0.950   .     S
C1127  C1129   1.360   .     S
C1127  N1139   1.360   .     D
C1127  H1143   0.950   .     S
C1128  C1130   1.360   .     S
C1128  N1140   1.360   .     D
C1128  H1144   0.950   .     S
C1129  C825    1.360   1_556 S
C1129  C1131   1.500   .     D
C1130  C1132   1.500   .     D
C1131  C835    1.390   1_556 S
C1131  C1134   1.390   .     S
C1132  C1133   1.390   .     S
C1133  C1135   1.390   .     D
C1133  H1145   0.950   .     S
C1134  C1136   1.390   .     D
C1134  H1146   0.950   .     S
C1135  H1147   0.950   .     S
C1136  C832    1.390   1_556 S
C1136  H1148   0.950   .     S
N1137  Co1198  2.166   .     S
N1138  N840    1.360   1_556 S
N1138  Co1199  2.166   .     S
N1139  N837    1.360   1_556 S
N1139  Co1197  2.153   .     S
N1140  Co1600  2.153   .     S
C1149  C1153   1.360   .     S
C1149  N1161   1.360   .     D
C1149  H1165   0.950   .     S
C1150  C1154   1.360   .     S
C1150  N1162   1.360   .     D
C1150  H1166   0.950   .     S
C1151  C1153   1.360   .     S
C1151  N1163   1.360   .     D
C1151  H1167   0.950   .     S
C1152  C1154   1.360   .     S
C1152  N1164   1.360   .     D
C1152  H1168   0.950   .     S
C1153  C1155   1.500   .     D
C1154  C1156   1.500   .     D
C1155  C1158   1.390   .     S
C1155  C1159   1.390   .     S
C1156  C1157   1.390   .     S
C1156  C1160   1.390   .     S
C1157  C1159   1.390   .     D
C1157  H1169   0.950   .     S
C1158  C1160   1.390   .     D
C1158  H1170   0.950   .     S
C1159  H1171   0.950   .     S
C1160  H1172   0.950   .     S
N1161  N1163   1.360   .     S
N1161  Co2798  2.166   .     S
N1162  N1164   1.360   .     S
N1162  Co1199  2.166   .     S
N1163  Co2797  2.153   .     S
N1164  Co1600  2.153   .     S
C1173  C1177   1.360   .     S
C1173  N1185   1.360   .     D
C1173  H1189   0.950   .     S
C1174  C1178   1.360   .     S
C1174  N1186   1.360   .     D
C1174  H1190   0.950   .     S
C1175  N1187   1.360   .     D
C1175  H1191   0.950   .     S
C1176  C878    1.360   1_556 S
C1176  N1188   1.360   .     D
C1176  H1192   0.950   .     S
C1177  C875    1.360   1_556 S
C1177  C1179   1.500   .     D
C1178  C1180   1.500   .     D
C1179  C882    1.390   1_556 S
C1179  C1183   1.390   .     S
C1180  C1184   1.390   .     S
C1181  C880    1.390   1_556 S
C1181  C1183   1.390   .     D
C1181  H1193   0.950   .     S
C1182  C1184   1.390   .     D
C1182  H1194   0.950   .     S
C1183  H1195   0.950   .     S
C1184  H1196   0.950   .     S
N1185  N887    1.360   1_556 S
N1185  Co2797  2.166   .     S
N1186  Co1200  2.166   .     S
N1187  Co2798  2.153   .     S
N1188  N886    1.360   1_556 S
Co1197 N2763   2.153   1_455 S
Co1197 N2785   2.166   1_455 S
Co1198 N2761   2.166   1_455 S
Co1198 N2787   2.153   1_455 S
Co1199 N1515   2.153   .     S
Co1199 N1588   2.153   .     S
C1201  C1205   1.360   .     S
C1201  N1213   1.360   .     D
C1201  H1217   0.950   .     S
C1202  C1206   1.360   .     S
C1202  N1214   1.360   .     D
C1202  H1218   0.950   .     S
C1203  C1205   1.360   .     S
C1203  N1215   1.360   .     D
C1203  H1219   0.950   .     S
C1204  C1206   1.360   .     S
C1204  N1216   1.360   .     D
C1204  H1220   0.950   .     S
C1205  C1207   1.500   .     D
C1206  C1208   1.500   .     D
C1207  C1210   1.390   .     S
C1207  C1211   1.390   .     S
C1208  C1209   1.390   .     S
C1208  C1212   1.390   .     S
C1209  C1211   1.390   .     D
C1209  H1221   0.950   .     S
C1210  C1212   1.390   .     D
C1210  H1222   0.950   .     S
C1211  H1223   0.950   .     S
C1212  H1224   0.950   .     S
N1213  N1215   1.360   .     S
N1213  Co1300  2.166   .     S
N1214  N1216   1.360   .     S
N1214  Co1297  2.166   .     S
N1216  Co1298  2.153   .     S
C1225  N1237   1.360   .     D
C1225  H1241   0.950   .     S
C1225  C1529   1.360   1_554 S
C1226  N1238   1.360   .     D
C1226  H1242   0.950   .     S
C1226  C1330   1.360   .     S
C1227  C1229   1.360   .     S
C1227  N1239   1.360   .     D
C1227  H1243   0.950   .     S
C1228  C1230   1.360   .     S
C1228  N1240   1.360   .     D
C1228  H1244   0.950   .     S
C1229  C1231   1.500   .     D
C1229  C1325   1.360   .     S
C1230  C1232   1.500   .     D
C1230  C1526   1.360   1_554 S
C1231  C1234   1.390   .     S
C1231  C1335   1.390   .     S
C1232  C1233   1.390   .     S
C1232  C1536   1.390   1_554 S
C1233  C1235   1.390   .     D
C1233  H1245   0.950   .     S
C1234  C1236   1.390   .     D
C1234  H1246   0.950   .     S
C1235  H1247   0.950   .     S
C1235  C1531   1.390   1_554 S
C1236  H1248   0.950   .     S
C1236  C1332   1.390   .     S
N1237  Co1298  2.166   .     S
N1237  N1539   1.360   1_554 S
N1238  Co1299  2.166   .     S
N1238  N1340   1.360   .     S
N1239  Co1297  2.153   .     S
N1239  N1337   1.360   .     S
N1240  Co100   2.153   1_565 S
N1240  N1538   1.360   1_554 S
C1249  C1253   1.360   .     S
C1249  N1261   1.360   .     D
C1249  H1265   0.950   .     S
C1250  C1254   1.360   .     S
C1250  N1262   1.360   .     D
C1250  H1266   0.950   .     S
C1251  C1253   1.360   .     S
C1251  N1263   1.360   .     D
C1251  H1267   0.950   .     S
C1252  C1254   1.360   .     S
C1252  N1264   1.360   .     D
C1252  H1268   0.950   .     S
C1253  C1255   1.500   .     D
C1254  C1256   1.500   .     D
C1255  C1258   1.390   .     S
C1255  C1259   1.390   .     S
C1256  C1257   1.390   .     S
C1256  C1260   1.390   .     S
C1257  C1259   1.390   .     D
C1257  H1269   0.950   .     S
C1258  C1260   1.390   .     D
C1258  H1270   0.950   .     S
C1259  H1271   0.950   .     S
C1260  H1272   0.950   .     S
N1261  N1263   1.360   .     S
N1261  Co2898  2.166   .     S
N1262  N1264   1.360   .     S
N1262  Co1299  2.166   .     S
N1263  Co2897  2.153   .     S
N1264  Co100   2.153   1_565 S
C1273  C1277   1.360   .     S
C1273  N1285   1.360   .     D
C1273  H1289   0.950   .     S
C1274  C1278   1.360   .     S
C1274  N1286   1.360   .     D
C1274  H1290   0.950   .     S
C1275  N1287   1.360   .     D
C1275  H1291   0.950   .     S
C1275  C1577   1.360   1_554 S
C1276  N1288   1.360   .     D
C1276  H1292   0.950   .     S
C1276  C1378   1.360   .     S
C1277  C1279   1.500   .     D
C1277  C1375   1.360   .     S
C1278  C1280   1.500   .     D
C1278  C1576   1.360   1_554 S
C1279  C1283   1.390   .     S
C1279  C1382   1.390   .     S
C1280  C1284   1.390   .     S
C1280  C1581   1.390   1_554 S
C1281  C1283   1.390   .     D
C1281  H1293   0.950   .     S
C1281  C1380   1.390   .     S
C1282  C1284   1.390   .     D
C1282  H1294   0.950   .     S
C1282  C1579   1.390   1_554 S
C1283  H1295   0.950   .     S
C1284  H1296   0.950   .     S
N1285  N1387   1.360   .     S
N1285  Co2897  2.166   .     S
N1286  Co1300  2.166   .     S
N1286  N1588   1.360   1_554 S
N1287  N1585   1.360   1_554 S
N1287  Co2898  2.153   .     S
N1288  N1386   1.360   .     S
Co1297 N2863   2.153   1_455 S
Co1297 N2885   2.166   1_455 S
Co1298 N2861   2.166   1_455 S
Co1298 N2887   2.153   1_455 S
Co1299 N15     2.153   1_565 S
Co1299 N88     2.153   1_565 S
C1301  C1305   1.360   .     S
C1301  N1313   1.360   .     D
C1301  H1317   0.950   .     S
C1302  C1306   1.360   .     S
C1302  N1314   1.360   .     D
C1302  H1318   0.950   .     S
C1303  C1305   1.360   .     S
C1303  N1315   1.360   .     D
C1303  H1319   0.950   .     S
C1304  C1306   1.360   .     S
C1304  N1316   1.360   .     D
C1304  H1320   0.950   .     S
C1305  C1307   1.500   .     D
C1306  C1308   1.500   .     D
C1307  C1310   1.390   .     S
C1307  C1311   1.390   .     S
C1308  C1309   1.390   .     S
C1308  C1312   1.390   .     S
C1309  C1311   1.390   .     D
C1309  H1321   0.950   .     S
C1310  C1312   1.390   .     D
C1310  H1322   0.950   .     S
C1311  H1323   0.950   .     S
C1312  H1324   0.950   .     S
N1313  N1315   1.360   .     S
N1313  Co1400  2.166   .     S
N1314  N1316   1.360   .     S
N1314  Co1397  2.166   .     S
N1316  Co1398  2.153   .     S
C1325  N1337   1.360   .     D
C1325  H1341   0.950   .     S
C1326  N1338   1.360   .     D
C1326  H1342   0.950   .     S
C1326  C1430   1.360   .     S
C1327  C1329   1.360   .     S
C1327  N1339   1.360   .     D
C1327  H1343   0.950   .     S
C1328  C1330   1.360   .     S
C1328  N1340   1.360   .     D
C1328  H1344   0.950   .     S
C1329  C1331   1.500   .     D
C1329  C1425   1.360   .     S
C1330  C1332   1.500   .     D
C1331  C1334   1.390   .     S
C1331  C1435   1.390   .     S
C1332  C1333   1.390   .     S
C1333  C1335   1.390   .     D
C1333  H1345   0.950   .     S
C1334  C1336   1.390   .     D
C1334  H1346   0.950   .     S
C1335  H1347   0.950   .     S
C1336  H1348   0.950   .     S
C1336  C1432   1.390   .     S
N1337  Co1398  2.166   .     S
N1338  Co1399  2.166   .     S
N1338  N1440   1.360   .     S
N1339  Co1397  2.153   .     S
N1339  N1437   1.360   .     S
N1340  Co200   2.153   1_565 S
C1349  C1353   1.360   .     S
C1349  N1361   1.360   .     D
C1349  H1365   0.950   .     S
C1350  C1354   1.360   .     S
C1350  N1362   1.360   .     D
C1350  H1366   0.950   .     S
C1351  C1353   1.360   .     S
C1351  N1363   1.360   .     D
C1351  H1367   0.950   .     S
C1352  C1354   1.360   .     S
C1352  N1364   1.360   .     D
C1352  H1368   0.950   .     S
C1353  C1355   1.500   .     D
C1354  C1356   1.500   .     D
C1355  C1358   1.390   .     S
C1355  C1359   1.390   .     S
C1356  C1357   1.390   .     S
C1356  C1360   1.390   .     S
C1357  C1359   1.390   .     D
C1357  H1369   0.950   .     S
C1358  C1360   1.390   .     D
C1358  H1370   0.950   .     S
C1359  H1371   0.950   .     S
C1360  H1372   0.950   .     S
N1361  N1363   1.360   .     S
N1361  Co2998  2.166   .     S
N1362  N1364   1.360   .     S
N1362  Co1399  2.166   .     S
N1363  Co2997  2.153   .     S
N1364  Co200   2.153   1_565 S
C1373  C1377   1.360   .     S
C1373  N1385   1.360   .     D
C1373  H1389   0.950   .     S
C1374  C1378   1.360   .     S
C1374  N1386   1.360   .     D
C1374  H1390   0.950   .     S
C1375  N1387   1.360   .     D
C1375  H1391   0.950   .     S
C1376  N1388   1.360   .     D
C1376  H1392   0.950   .     S
C1376  C1478   1.360   .     S
C1377  C1379   1.500   .     D
C1377  C1475   1.360   .     S
C1378  C1380   1.500   .     D
C1379  C1383   1.390   .     S
C1379  C1482   1.390   .     S
C1380  C1384   1.390   .     S
C1381  C1383   1.390   .     D
C1381  H1393   0.950   .     S
C1381  C1480   1.390   .     S
C1382  C1384   1.390   .     D
C1382  H1394   0.950   .     S
C1383  H1395   0.950   .     S
C1384  H1396   0.950   .     S
N1385  N1487   1.360   .     S
N1385  Co2997  2.166   .     S
N1386  Co1400  2.166   .     S
N1387  Co2998  2.153   .     S
N1388  N1486   1.360   .     S
Co1397 N2963   2.153   1_455 S
Co1397 N2985   2.166   1_455 S
Co1398 N2961   2.166   1_455 S
Co1398 N2987   2.153   1_455 S
Co1399 N115    2.153   1_565 S
Co1399 N188    2.153   1_565 S
C1401  C1405   1.360   .     S
C1401  N1413   1.360   .     D
C1401  H1417   0.950   .     S
C1402  C1406   1.360   .     S
C1402  N1414   1.360   .     D
C1402  H1418   0.950   .     S
C1403  C1405   1.360   .     S
C1403  N1415   1.360   .     D
C1403  H1419   0.950   .     S
C1404  C1406   1.360   .     S
C1404  N1416   1.360   .     D
C1404  H1420   0.950   .     S
C1405  C1407   1.500   .     D
C1406  C1408   1.500   .     D
C1407  C1410   1.390   .     S
C1407  C1411   1.390   .     S
C1408  C1409   1.390   .     S
C1408  C1412   1.390   .     S
C1409  C1411   1.390   .     D
C1409  H1421   0.950   .     S
C1410  C1412   1.390   .     D
C1410  H1422   0.950   .     S
C1411  H1423   0.950   .     S
C1412  H1424   0.950   .     S
N1413  N1415   1.360   .     S
N1413  Co1500  2.166   .     S
N1414  N1416   1.360   .     S
N1414  Co1497  2.166   .     S
N1416  Co1498  2.153   .     S
C1425  N1437   1.360   .     D
C1425  H1441   0.950   .     S
C1426  N1438   1.360   .     D
C1426  H1442   0.950   .     S
C1426  C1530   1.360   .     S
C1427  C1429   1.360   .     S
C1427  N1439   1.360   .     D
C1427  H1443   0.950   .     S
C1428  C1430   1.360   .     S
C1428  N1440   1.360   .     D
C1428  H1444   0.950   .     S
C1429  C1431   1.500   .     D
C1429  C1525   1.360   .     S
C1430  C1432   1.500   .     D
C1431  C1434   1.390   .     S
C1431  C1535   1.390   .     S
C1432  C1433   1.390   .     S
C1433  C1435   1.390   .     D
C1433  H1445   0.950   .     S
C1434  C1436   1.390   .     D
C1434  H1446   0.950   .     S
C1435  H1447   0.950   .     S
C1436  H1448   0.950   .     S
C1436  C1532   1.390   .     S
N1437  Co1498  2.166   .     S
N1438  Co1499  2.166   .     S
N1438  N1540   1.360   .     S
N1439  Co1497  2.153   .     S
N1439  N1537   1.360   .     S
N1440  Co300   2.153   1_565 S
C1449  C1453   1.360   .     S
C1449  N1461   1.360   .     D
C1449  H1465   0.950   .     S
C1450  C1454   1.360   .     S
C1450  N1462   1.360   .     D
C1450  H1466   0.950   .     S
C1451  C1453   1.360   .     S
C1451  N1463   1.360   .     D
C1451  H1467   0.950   .     S
C1452  C1454   1.360   .     S
C1452  N1464   1.360   .     D
C1452  H1468   0.950   .     S
C1453  C1455   1.500   .     D
C1454  C1456   1.500   .     D
C1455  C1458   1.390   .     S
C1455  C1459   1.390   .     S
C1456  C1457   1.390   .     S
C1456  C1460   1.390   .     S
C1457  C1459   1.390   .     D
C1457  H1469   0.950   .     S
C1458  C1460   1.390   .     D
C1458  H1470   0.950   .     S
C1459  H1471   0.950   .     S
C1460  H1472   0.950   .     S
N1461  N1463   1.360   .     S
N1461  Co3098  2.166   .     S
N1462  N1464   1.360   .     S
N1462  Co1499  2.166   .     S
N1463  Co3097  2.153   .     S
N1464  Co300   2.153   1_565 S
C1473  C1477   1.360   .     S
C1473  N1485   1.360   .     D
C1473  H1489   0.950   .     S
C1474  C1478   1.360   .     S
C1474  N1486   1.360   .     D
C1474  H1490   0.950   .     S
C1475  N1487   1.360   .     D
C1475  H1491   0.950   .     S
C1476  N1488   1.360   .     D
C1476  H1492   0.950   .     S
C1476  C1578   1.360   .     S
C1477  C1479   1.500   .     D
C1477  C1575   1.360   .     S
C1478  C1480   1.500   .     D
C1479  C1483   1.390   .     S
C1479  C1582   1.390   .     S
C1480  C1484   1.390   .     S
C1481  C1483   1.390   .     D
C1481  H1493   0.950   .     S
C1481  C1580   1.390   .     S
C1482  C1484   1.390   .     D
C1482  H1494   0.950   .     S
C1483  H1495   0.950   .     S
C1484  H1496   0.950   .     S
N1485  N1587   1.360   .     S
N1485  Co3097  2.166   .     S
N1486  Co1500  2.166   .     S
N1487  Co3098  2.153   .     S
N1488  N1586   1.360   .     S
Co1497 N3063   2.153   1_455 S
Co1497 N3085   2.166   1_455 S
Co1498 N3061   2.166   1_455 S
Co1498 N3087   2.153   1_455 S
Co1499 N215    2.153   1_565 S
Co1499 N288    2.153   1_565 S
C1501  C1505   1.360   .     S
C1501  N1513   1.360   .     D
C1501  H1517   0.950   .     S
C1502  C1506   1.360   .     S
C1502  N1514   1.360   .     D
C1502  H1518   0.950   .     S
C1503  C1505   1.360   .     S
C1503  N1515   1.360   .     D
C1503  H1519   0.950   .     S
C1504  C1506   1.360   .     S
C1504  N1516   1.360   .     D
C1504  H1520   0.950   .     S
C1505  C1507   1.500   .     D
C1506  C1508   1.500   .     D
C1507  C1510   1.390   .     S
C1507  C1511   1.390   .     S
C1508  C1509   1.390   .     S
C1508  C1512   1.390   .     S
C1509  C1511   1.390   .     D
C1509  H1521   0.950   .     S
C1510  C1512   1.390   .     D
C1510  H1522   0.950   .     S
C1511  H1523   0.950   .     S
C1512  H1524   0.950   .     S
N1513  N1515   1.360   .     S
N1513  Co1600  2.166   .     S
N1514  N1516   1.360   .     S
N1514  Co1597  2.166   .     S
N1516  Co1598  2.153   .     S
C1525  N1537   1.360   .     D
C1525  H1541   0.950   .     S
C1526  C1230   1.360   1_556 S
C1526  N1538   1.360   .     D
C1526  H1542   0.950   .     S
C1527  C1529   1.360   .     S
C1527  N1539   1.360   .     D
C1527  H1543   0.950   .     S
C1528  C1530   1.360   .     S
C1528  N1540   1.360   .     D
C1528  H1544   0.950   .     S
C1529  C1225   1.360   1_556 S
C1529  C1531   1.500   .     D
C1530  C1532   1.500   .     D
C1531  C1235   1.390   1_556 S
C1531  C1534   1.390   .     S
C1532  C1533   1.390   .     S
C1533  C1535   1.390   .     D
C1533  H1545   0.950   .     S
C1534  C1536   1.390   .     D
C1534  H1546   0.950   .     S
C1535  H1547   0.950   .     S
C1536  C1232   1.390   1_556 S
C1536  H1548   0.950   .     S
N1537  Co1598  2.166   .     S
N1538  N1240   1.360   1_556 S
N1538  Co1599  2.166   .     S
N1539  N1237   1.360   1_556 S
N1539  Co1597  2.153   .     S
N1540  Co400   2.153   1_565 S
C1549  C1553   1.360   .     S
C1549  N1561   1.360   .     D
C1549  H1565   0.950   .     S
C1550  C1554   1.360   .     S
C1550  N1562   1.360   .     D
C1550  H1566   0.950   .     S
C1551  C1553   1.360   .     S
C1551  N1563   1.360   .     D
C1551  H1567   0.950   .     S
C1552  C1554   1.360   .     S
C1552  N1564   1.360   .     D
C1552  H1568   0.950   .     S
C1553  C1555   1.500   .     D
C1554  C1556   1.500   .     D
C1555  C1558   1.390   .     S
C1555  C1559   1.390   .     S
C1556  C1557   1.390   .     S
C1556  C1560   1.390   .     S
C1557  C1559   1.390   .     D
C1557  H1569   0.950   .     S
C1558  C1560   1.390   .     D
C1558  H1570   0.950   .     S
C1559  H1571   0.950   .     S
C1560  H1572   0.950   .     S
N1561  N1563   1.360   .     S
N1561  Co3198  2.166   .     S
N1562  N1564   1.360   .     S
N1562  Co1599  2.166   .     S
N1563  Co3197  2.153   .     S
N1564  Co400   2.153   1_565 S
C1573  C1577   1.360   .     S
C1573  N1585   1.360   .     D
C1573  H1589   0.950   .     S
C1574  C1578   1.360   .     S
C1574  N1586   1.360   .     D
C1574  H1590   0.950   .     S
C1575  N1587   1.360   .     D
C1575  H1591   0.950   .     S
C1576  C1278   1.360   1_556 S
C1576  N1588   1.360   .     D
C1576  H1592   0.950   .     S
C1577  C1275   1.360   1_556 S
C1577  C1579   1.500   .     D
C1578  C1580   1.500   .     D
C1579  C1282   1.390   1_556 S
C1579  C1583   1.390   .     S
C1580  C1584   1.390   .     S
C1581  C1280   1.390   1_556 S
C1581  C1583   1.390   .     D
C1581  H1593   0.950   .     S
C1582  C1584   1.390   .     D
C1582  H1594   0.950   .     S
C1583  H1595   0.950   .     S
C1584  H1596   0.950   .     S
N1585  N1287   1.360   1_556 S
N1585  Co3197  2.166   .     S
N1586  Co1600  2.166   .     S
N1587  Co3198  2.153   .     S
N1588  N1286   1.360   1_556 S
Co1597 N3163   2.153   1_455 S
Co1597 N3185   2.166   1_455 S
Co1598 N3161   2.166   1_455 S
Co1598 N3187   2.153   1_455 S
Co1599 N315    2.153   1_565 S
Co1599 N388    2.153   1_565 S
C1601  C1605   1.360   .     S
C1601  N1613   1.360   .     D
C1601  H1617   0.950   .     S
C1602  C1606   1.360   .     S
C1602  N1614   1.360   .     D
C1602  H1618   0.950   .     S
C1603  C1605   1.360   .     S
C1603  N1615   1.360   .     D
C1603  H1619   0.950   .     S
C1604  C1606   1.360   .     S
C1604  N1616   1.360   .     D
C1604  H1620   0.950   .     S
C1605  C1607   1.500   .     D
C1606  C1608   1.500   .     D
C1607  C1610   1.390   .     S
C1607  C1611   1.390   .     S
C1608  C1609   1.390   .     S
C1608  C1612   1.390   .     S
C1609  C1611   1.390   .     D
C1609  H1621   0.950   .     S
C1610  C1612   1.390   .     D
C1610  H1622   0.950   .     S
C1611  H1623   0.950   .     S
C1612  H1624   0.950   .     S
N1613  N1615   1.360   .     S
N1613  Co1700  2.166   .     S
N1614  N1616   1.360   .     S
N1614  Co1697  2.166   .     S
N1615  Co2899  2.153   1_545 S
N1616  Co1698  2.153   .     S
C1625  N1637   1.360   .     D
C1625  H1641   0.950   .     S
C1625  C1929   1.360   1_554 S
C1626  N1638   1.360   .     D
C1626  H1642   0.950   .     S
C1626  C1730   1.360   .     S
C1627  C1629   1.360   .     S
C1627  N1639   1.360   .     D
C1627  H1643   0.950   .     S
C1628  C1630   1.360   .     S
C1628  N1640   1.360   .     D
C1628  H1644   0.950   .     S
C1629  C1631   1.500   .     D
C1629  C1725   1.360   .     S
C1630  C1632   1.500   .     D
C1630  C1926   1.360   1_554 S
C1631  C1634   1.390   .     S
C1631  C1735   1.390   .     S
C1632  C1633   1.390   .     S
C1632  C1936   1.390   1_554 S
C1633  C1635   1.390   .     D
C1633  H1645   0.950   .     S
C1634  C1636   1.390   .     D
C1634  H1646   0.950   .     S
C1635  H1647   0.950   .     S
C1635  C1931   1.390   1_554 S
C1636  H1648   0.950   .     S
C1636  C1732   1.390   .     S
N1637  Co1698  2.166   .     S
N1637  N1939   1.360   1_554 S
N1638  Co1699  2.166   .     S
N1638  N1740   1.360   .     S
N1639  Co1697  2.153   .     S
N1639  N1737   1.360   .     S
N1640  N1938   1.360   1_554 S
N1640  Co2100  2.153   .     S
C1649  C1653   1.360   .     S
C1649  N1661   1.360   .     D
C1649  H1665   0.950   .     S
C1650  C1654   1.360   .     S
C1650  N1662   1.360   .     D
C1650  H1666   0.950   .     S
C1651  C1653   1.360   .     S
C1651  N1663   1.360   .     D
C1651  H1667   0.950   .     S
C1652  C1654   1.360   .     S
C1652  N1664   1.360   .     D
C1652  H1668   0.950   .     S
C1653  C1655   1.500   .     D
C1654  C1656   1.500   .     D
C1655  C1658   1.390   .     S
C1655  C1659   1.390   .     S
C1656  C1657   1.390   .     S
C1656  C1660   1.390   .     S
C1657  C1659   1.390   .     D
C1657  H1669   0.950   .     S
C1658  C1660   1.390   .     D
C1658  H1670   0.950   .     S
C1659  H1671   0.950   .     S
C1660  H1672   0.950   .     S
N1661  Co98    2.166   1_655 S
N1661  N1663   1.360   .     S
N1662  N1664   1.360   .     S
N1662  Co1699  2.166   .     S
N1663  Co97    2.153   1_655 S
N1664  Co2100  2.153   .     S
C1673  C1677   1.360   .     S
C1673  N1685   1.360   .     D
C1673  H1689   0.950   .     S
C1674  C1678   1.360   .     S
C1674  N1686   1.360   .     D
C1674  H1690   0.950   .     S
C1675  N1687   1.360   .     D
C1675  H1691   0.950   .     S
C1675  C1977   1.360   1_554 S
C1676  N1688   1.360   .     D
C1676  H1692   0.950   .     S
C1676  C1778   1.360   .     S
C1677  C1679   1.500   .     D
C1677  C1775   1.360   .     S
C1678  C1680   1.500   .     D
C1678  C1976   1.360   1_554 S
C1679  C1683   1.390   .     S
C1679  C1782   1.390   .     S
C1680  C1684   1.390   .     S
C1680  C1981   1.390   1_554 S
C1681  C1683   1.390   .     D
C1681  H1693   0.950   .     S
C1681  C1780   1.390   .     S
C1682  C1684   1.390   .     D
C1682  H1694   0.950   .     S
C1682  C1979   1.390   1_554 S
C1683  H1695   0.950   .     S
C1684  H1696   0.950   .     S
N1685  Co97    2.166   1_655 S
N1685  N1787   1.360   .     S
N1686  Co1700  2.166   .     S
N1686  N1988   1.360   1_554 S
N1687  Co98    2.153   1_655 S
N1687  N1985   1.360   1_554 S
N1688  N1786   1.360   .     S
N1688  Co2899  2.153   1_545 S
Co1699 N2015   2.153   .     S
Co1699 N2088   2.153   .     S
Co1700 N2840   2.153   1_545 S
Co1700 N2864   2.153   1_545 S
C1701  C1705   1.360   .     S
C1701  N1713   1.360   .     D
C1701  H1717   0.950   .     S
C1702  C1706   1.360   .     S
C1702  N1714   1.360   .     D
C1702  H1718   0.950   .     S
C1703  C1705   1.360   .     S
C1703  N1715   1.360   .     D
C1703  H1719   0.950   .     S
C1704  C1706   1.360   .     S
C1704  N1716   1.360   .     D
C1704  H1720   0.950   .     S
C1705  C1707   1.500   .     D
C1706  C1708   1.500   .     D
C1707  C1710   1.390   .     S
C1707  C1711   1.390   .     S
C1708  C1709   1.390   .     S
C1708  C1712   1.390   .     S
C1709  C1711   1.390   .     D
C1709  H1721   0.950   .     S
C1710  C1712   1.390   .     D
C1710  H1722   0.950   .     S
C1711  H1723   0.950   .     S
C1712  H1724   0.950   .     S
N1713  N1715   1.360   .     S
N1713  Co1800  2.166   .     S
N1714  N1716   1.360   .     S
N1714  Co1797  2.166   .     S
N1715  Co2999  2.153   1_545 S
N1716  Co1798  2.153   .     S
C1725  N1737   1.360   .     D
C1725  H1741   0.950   .     S
C1726  N1738   1.360   .     D
C1726  H1742   0.950   .     S
C1726  C1830   1.360   .     S
C1727  C1729   1.360   .     S
C1727  N1739   1.360   .     D
C1727  H1743   0.950   .     S
C1728  C1730   1.360   .     S
C1728  N1740   1.360   .     D
C1728  H1744   0.950   .     S
C1729  C1731   1.500   .     D
C1729  C1825   1.360   .     S
C1730  C1732   1.500   .     D
C1731  C1734   1.390   .     S
C1731  C1835   1.390   .     S
C1732  C1733   1.390   .     S
C1733  C1735   1.390   .     D
C1733  H1745   0.950   .     S
C1734  C1736   1.390   .     D
C1734  H1746   0.950   .     S
C1735  H1747   0.950   .     S
C1736  H1748   0.950   .     S
C1736  C1832   1.390   .     S
N1737  Co1798  2.166   .     S
N1738  Co1799  2.166   .     S
N1738  N1840   1.360   .     S
N1739  Co1797  2.153   .     S
N1739  N1837   1.360   .     S
N1740  Co2200  2.153   .     S
C1749  C1753   1.360   .     S
C1749  N1761   1.360   .     D
C1749  H1765   0.950   .     S
C1750  C1754   1.360   .     S
C1750  N1762   1.360   .     D
C1750  H1766   0.950   .     S
C1751  C1753   1.360   .     S
C1751  N1763   1.360   .     D
C1751  H1767   0.950   .     S
C1752  C1754   1.360   .     S
C1752  N1764   1.360   .     D
C1752  H1768   0.950   .     S
C1753  C1755   1.500   .     D
C1754  C1756   1.500   .     D
C1755  C1758   1.390   .     S
C1755  C1759   1.390   .     S
C1756  C1757   1.390   .     S
C1756  C1760   1.390   .     S
C1757  C1759   1.390   .     D
C1757  H1769   0.950   .     S
C1758  C1760   1.390   .     D
C1758  H1770   0.950   .     S
C1759  H1771   0.950   .     S
C1760  H1772   0.950   .     S
N1761  Co198   2.166   1_655 S
N1761  N1763   1.360   .     S
N1762  N1764   1.360   .     S
N1762  Co1799  2.166   .     S
N1763  Co197   2.153   1_655 S
N1764  Co2200  2.153   .     S
C1773  C1777   1.360   .     S
C1773  N1785   1.360   .     D
C1773  H1789   0.950   .     S
C1774  C1778   1.360   .     S
C1774  N1786   1.360   .     D
C1774  H1790   0.950   .     S
C1775  N1787   1.360   .     D
C1775  H1791   0.950   .     S
C1776  N1788   1.360   .     D
C1776  H1792   0.950   .     S
C1776  C1878   1.360   .     S
C1777  C1779   1.500   .     D
C1777  C1875   1.360   .     S
C1778  C1780   1.500   .     D
C1779  C1783   1.390   .     S
C1779  C1882   1.390   .     S
C1780  C1784   1.390   .     S
C1781  C1783   1.390   .     D
C1781  H1793   0.950   .     S
C1781  C1880   1.390   .     S
C1782  C1784   1.390   .     D
C1782  H1794   0.950   .     S
C1783  H1795   0.950   .     S
C1784  H1796   0.950   .     S
N1785  Co197   2.166   1_655 S
N1785  N1887   1.360   .     S
N1786  Co1800  2.166   .     S
N1787  Co198   2.153   1_655 S
N1788  N1886   1.360   .     S
N1788  Co2999  2.153   1_545 S
Co1799 N2115   2.153   .     S
Co1799 N2188   2.153   .     S
Co1800 N2940   2.153   1_545 S
Co1800 N2964   2.153   1_545 S
C1801  C1805   1.360   .     S
C1801  N1813   1.360   .     D
C1801  H1817   0.950   .     S
C1802  C1806   1.360   .     S
C1802  N1814   1.360   .     D
C1802  H1818   0.950   .     S
C1803  C1805   1.360   .     S
C1803  N1815   1.360   .     D
C1803  H1819   0.950   .     S
C1804  C1806   1.360   .     S
C1804  N1816   1.360   .     D
C1804  H1820   0.950   .     S
C1805  C1807   1.500   .     D
C1806  C1808   1.500   .     D
C1807  C1810   1.390   .     S
C1807  C1811   1.390   .     S
C1808  C1809   1.390   .     S
C1808  C1812   1.390   .     S
C1809  C1811   1.390   .     D
C1809  H1821   0.950   .     S
C1810  C1812   1.390   .     D
C1810  H1822   0.950   .     S
C1811  H1823   0.950   .     S
C1812  H1824   0.950   .     S
N1813  N1815   1.360   .     S
N1813  Co1900  2.166   .     S
N1814  N1816   1.360   .     S
N1814  Co1897  2.166   .     S
N1815  Co3099  2.153   1_545 S
N1816  Co1898  2.153   .     S
C1825  N1837   1.360   .     D
C1825  H1841   0.950   .     S
C1826  N1838   1.360   .     D
C1826  H1842   0.950   .     S
C1826  C1930   1.360   .     S
C1827  C1829   1.360   .     S
C1827  N1839   1.360   .     D
C1827  H1843   0.950   .     S
C1828  C1830   1.360   .     S
C1828  N1840   1.360   .     D
C1828  H1844   0.950   .     S
C1829  C1831   1.500   .     D
C1829  C1925   1.360   .     S
C1830  C1832   1.500   .     D
C1831  C1834   1.390   .     S
C1831  C1935   1.390   .     S
C1832  C1833   1.390   .     S
C1833  C1835   1.390   .     D
C1833  H1845   0.950   .     S
C1834  C1836   1.390   .     D
C1834  H1846   0.950   .     S
C1835  H1847   0.950   .     S
C1836  H1848   0.950   .     S
C1836  C1932   1.390   .     S
N1837  Co1898  2.166   .     S
N1838  Co1899  2.166   .     S
N1838  N1940   1.360   .     S
N1839  Co1897  2.153   .     S
N1839  N1937   1.360   .     S
N1840  Co2300  2.153   .     S
C1849  C1853   1.360   .     S
C1849  N1861   1.360   .     D
C1849  H1865   0.950   .     S
C1850  C1854   1.360   .     S
C1850  N1862   1.360   .     D
C1850  H1866   0.950   .     S
C1851  C1853   1.360   .     S
C1851  N1863   1.360   .     D
C1851  H1867   0.950   .     S
C1852  C1854   1.360   .     S
C1852  N1864   1.360   .     D
C1852  H1868   0.950   .     S
C1853  C1855   1.500   .     D
C1854  C1856   1.500   .     D
C1855  C1858   1.390   .     S
C1855  C1859   1.390   .     S
C1856  C1857   1.390   .     S
C1856  C1860   1.390   .     S
C1857  C1859   1.390   .     D
C1857  H1869   0.950   .     S
C1858  C1860   1.390   .     D
C1858  H1870   0.950   .     S
C1859  H1871   0.950   .     S
C1860  H1872   0.950   .     S
N1861  Co298   2.166   1_655 S
N1861  N1863   1.360   .     S
N1862  N1864   1.360   .     S
N1862  Co1899  2.166   .     S
N1863  Co297   2.153   1_655 S
N1864  Co2300  2.153   .     S
C1873  C1877   1.360   .     S
C1873  N1885   1.360   .     D
C1873  H1889   0.950   .     S
C1874  C1878   1.360   .     S
C1874  N1886   1.360   .     D
C1874  H1890   0.950   .     S
C1875  N1887   1.360   .     D
C1875  H1891   0.950   .     S
C1876  N1888   1.360   .     D
C1876  H1892   0.950   .     S
C1876  C1978   1.360   .     S
C1877  C1879   1.500   .     D
C1877  C1975   1.360   .     S
C1878  C1880   1.500   .     D
C1879  C1883   1.390   .     S
C1879  C1982   1.390   .     S
C1880  C1884   1.390   .     S
C1881  C1883   1.390   .     D
C1881  H1893   0.950   .     S
C1881  C1980   1.390   .     S
C1882  C1884   1.390   .     D
C1882  H1894   0.950   .     S
C1883  H1895   0.950   .     S
C1884  H1896   0.950   .     S
N1885  Co297   2.166   1_655 S
N1885  N1987   1.360   .     S
N1886  Co1900  2.166   .     S
N1887  Co298   2.153   1_655 S
N1888  N1986   1.360   .     S
N1888  Co3099  2.153   1_545 S
Co1899 N2215   2.153   .     S
Co1899 N2288   2.153   .     S
Co1900 N3040   2.153   1_545 S
Co1900 N3064   2.153   1_545 S
C1901  C1905   1.360   .     S
C1901  N1913   1.360   .     D
C1901  H1917   0.950   .     S
C1902  C1906   1.360   .     S
C1902  N1914   1.360   .     D
C1902  H1918   0.950   .     S
C1903  C1905   1.360   .     S
C1903  N1915   1.360   .     D
C1903  H1919   0.950   .     S
C1904  C1906   1.360   .     S
C1904  N1916   1.360   .     D
C1904  H1920   0.950   .     S
C1905  C1907   1.500   .     D
C1906  C1908   1.500   .     D
C1907  C1910   1.390   .     S
C1907  C1911   1.390   .     S
C1908  C1909   1.390   .     S
C1908  C1912   1.390   .     S
C1909  C1911   1.390   .     D
C1909  H1921   0.950   .     S
C1910  C1912   1.390   .     D
C1910  H1922   0.950   .     S
C1911  H1923   0.950   .     S
C1912  H1924   0.950   .     S
N1913  N1915   1.360   .     S
N1913  Co2000  2.166   .     S
N1914  N1916   1.360   .     S
N1914  Co1997  2.166   .     S
N1915  Co3199  2.153   1_545 S
N1916  Co1998  2.153   .     S
C1925  N1937   1.360   .     D
C1925  H1941   0.950   .     S
C1926  C1630   1.360   1_556 S
C1926  N1938   1.360   .     D
C1926  H1942   0.950   .     S
C1927  C1929   1.360   .     S
C1927  N1939   1.360   .     D
C1927  H1943   0.950   .     S
C1928  C1930   1.360   .     S
C1928  N1940   1.360   .     D
C1928  H1944   0.950   .     S
C1929  C1625   1.360   1_556 S
C1929  C1931   1.500   .     D
C1930  C1932   1.500   .     D
C1931  C1635   1.390   1_556 S
C1931  C1934   1.390   .     S
C1932  C1933   1.390   .     S
C1933  C1935   1.390   .     D
C1933  H1945   0.950   .     S
C1934  C1936   1.390   .     D
C1934  H1946   0.950   .     S
C1935  H1947   0.950   .     S
C1936  C1632   1.390   1_556 S
C1936  H1948   0.950   .     S
N1937  Co1998  2.166   .     S
N1938  N1640   1.360   1_556 S
N1938  Co1999  2.166   .     S
N1939  N1637   1.360   1_556 S
N1939  Co1997  2.153   .     S
N1940  Co2400  2.153   .     S
C1949  C1953   1.360   .     S
C1949  N1961   1.360   .     D
C1949  H1965   0.950   .     S
C1950  C1954   1.360   .     S
C1950  N1962   1.360   .     D
C1950  H1966   0.950   .     S
C1951  C1953   1.360   .     S
C1951  N1963   1.360   .     D
C1951  H1967   0.950   .     S
C1952  C1954   1.360   .     S
C1952  N1964   1.360   .     D
C1952  H1968   0.950   .     S
C1953  C1955   1.500   .     D
C1954  C1956   1.500   .     D
C1955  C1958   1.390   .     S
C1955  C1959   1.390   .     S
C1956  C1957   1.390   .     S
C1956  C1960   1.390   .     S
C1957  C1959   1.390   .     D
C1957  H1969   0.950   .     S
C1958  C1960   1.390   .     D
C1958  H1970   0.950   .     S
C1959  H1971   0.950   .     S
C1960  H1972   0.950   .     S
N1961  Co398   2.166   1_655 S
N1961  N1963   1.360   .     S
N1962  N1964   1.360   .     S
N1962  Co1999  2.166   .     S
N1963  Co397   2.153   1_655 S
N1964  Co2400  2.153   .     S
C1973  C1977   1.360   .     S
C1973  N1985   1.360   .     D
C1973  H1989   0.950   .     S
C1974  C1978   1.360   .     S
C1974  N1986   1.360   .     D
C1974  H1990   0.950   .     S
C1975  N1987   1.360   .     D
C1975  H1991   0.950   .     S
C1976  C1678   1.360   1_556 S
C1976  N1988   1.360   .     D
C1976  H1992   0.950   .     S
C1977  C1675   1.360   1_556 S
C1977  C1979   1.500   .     D
C1978  C1980   1.500   .     D
C1979  C1682   1.390   1_556 S
C1979  C1983   1.390   .     S
C1980  C1984   1.390   .     S
C1981  C1680   1.390   1_556 S
C1981  C1983   1.390   .     D
C1981  H1993   0.950   .     S
C1982  C1984   1.390   .     D
C1982  H1994   0.950   .     S
C1983  H1995   0.950   .     S
C1984  H1996   0.950   .     S
N1985  Co397   2.166   1_655 S
N1985  N1687   1.360   1_556 S
N1986  Co2000  2.166   .     S
N1987  Co398   2.153   1_655 S
N1988  N1686   1.360   1_556 S
N1988  Co3199  2.153   1_545 S
Co1999 N2315   2.153   .     S
Co1999 N2388   2.153   .     S
Co2000 N3140   2.153   1_545 S
Co2000 N3164   2.153   1_545 S
C2001  C2005   1.360   .     S
C2001  N2013   1.360   .     D
C2001  H2017   0.950   .     S
C2002  C2006   1.360   .     S
C2002  N2014   1.360   .     D
C2002  H2018   0.950   .     S
C2003  C2005   1.360   .     S
C2003  N2015   1.360   .     D
C2003  H2019   0.950   .     S
C2004  C2006   1.360   .     S
C2004  N2016   1.360   .     D
C2004  H2020   0.950   .     S
C2005  C2007   1.500   .     D
C2006  C2008   1.500   .     D
C2007  C2010   1.390   .     S
C2007  C2011   1.390   .     S
C2008  C2009   1.390   .     S
C2008  C2012   1.390   .     S
C2009  C2011   1.390   .     D
C2009  H2021   0.950   .     S
C2010  C2012   1.390   .     D
C2010  H2022   0.950   .     S
C2011  H2023   0.950   .     S
C2012  H2024   0.950   .     S
N2013  N2015   1.360   .     S
N2013  Co2100  2.166   .     S
N2014  N2016   1.360   .     S
N2014  Co2097  2.166   .     S
N2016  Co2098  2.153   .     S
C2025  N2037   1.360   .     D
C2025  H2041   0.950   .     S
C2025  C2329   1.360   1_554 S
C2026  N2038   1.360   .     D
C2026  H2042   0.950   .     S
C2026  C2130   1.360   .     S
C2027  C2029   1.360   .     S
C2027  N2039   1.360   .     D
C2027  H2043   0.950   .     S
C2028  C2030   1.360   .     S
C2028  N2040   1.360   .     D
C2028  H2044   0.950   .     S
C2029  C2031   1.500   .     D
C2029  C2125   1.360   .     S
C2030  C2032   1.500   .     D
C2030  C2326   1.360   1_554 S
C2031  C2034   1.390   .     S
C2031  C2135   1.390   .     S
C2032  C2033   1.390   .     S
C2032  C2336   1.390   1_554 S
C2033  C2035   1.390   .     D
C2033  H2045   0.950   .     S
C2034  C2036   1.390   .     D
C2034  H2046   0.950   .     S
C2035  H2047   0.950   .     S
C2035  C2331   1.390   1_554 S
C2036  H2048   0.950   .     S
C2036  C2132   1.390   .     S
N2037  Co2098  2.166   .     S
N2037  N2339   1.360   1_554 S
N2038  Co2099  2.166   .     S
N2038  N2140   1.360   .     S
N2039  Co2097  2.153   .     S
N2039  N2137   1.360   .     S
N2040  N2338   1.360   1_554 S
N2040  Co2500  2.153   .     S
C2049  C2053   1.360   .     S
C2049  N2061   1.360   .     D
C2049  H2065   0.950   .     S
C2050  C2054   1.360   .     S
C2050  N2062   1.360   .     D
C2050  H2066   0.950   .     S
C2051  C2053   1.360   .     S
C2051  N2063   1.360   .     D
C2051  H2067   0.950   .     S
C2052  C2054   1.360   .     S
C2052  N2064   1.360   .     D
C2052  H2068   0.950   .     S
C2053  C2055   1.500   .     D
C2054  C2056   1.500   .     D
C2055  C2058   1.390   .     S
C2055  C2059   1.390   .     S
C2056  C2057   1.390   .     S
C2056  C2060   1.390   .     S
C2057  C2059   1.390   .     D
C2057  H2069   0.950   .     S
C2058  C2060   1.390   .     D
C2058  H2070   0.950   .     S
C2059  H2071   0.950   .     S
C2060  H2072   0.950   .     S
N2061  Co498   2.166   1_655 S
N2061  N2063   1.360   .     S
N2062  N2064   1.360   .     S
N2062  Co2099  2.166   .     S
N2063  Co497   2.153   1_655 S
N2064  Co2500  2.153   .     S
C2073  C2077   1.360   .     S
C2073  N2085   1.360   .     D
C2073  H2089   0.950   .     S
C2074  C2078   1.360   .     S
C2074  N2086   1.360   .     D
C2074  H2090   0.950   .     S
C2075  N2087   1.360   .     D
C2075  H2091   0.950   .     S
C2075  C2377   1.360   1_554 S
C2076  N2088   1.360   .     D
C2076  H2092   0.950   .     S
C2076  C2178   1.360   .     S
C2077  C2079   1.500   .     D
C2077  C2175   1.360   .     S
C2078  C2080   1.500   .     D
C2078  C2376   1.360   1_554 S
C2079  C2083   1.390   .     S
C2079  C2182   1.390   .     S
C2080  C2084   1.390   .     S
C2080  C2381   1.390   1_554 S
C2081  C2083   1.390   .     D
C2081  H2093   0.950   .     S
C2081  C2180   1.390   .     S
C2082  C2084   1.390   .     D
C2082  H2094   0.950   .     S
C2082  C2379   1.390   1_554 S
C2083  H2095   0.950   .     S
C2084  H2096   0.950   .     S
N2085  Co497   2.166   1_655 S
N2085  N2187   1.360   .     S
N2086  Co2100  2.166   .     S
N2086  N2388   1.360   1_554 S
N2087  Co498   2.153   1_655 S
N2087  N2385   1.360   1_554 S
N2088  N2186   1.360   .     S
Co2099 N2415   2.153   .     S
Co2099 N2488   2.153   .     S
C2101  C2105   1.360   .     S
C2101  N2113   1.360   .     D
C2101  H2117   0.950   .     S
C2102  C2106   1.360   .     S
C2102  N2114   1.360   .     D
C2102  H2118   0.950   .     S
C2103  C2105   1.360   .     S
C2103  N2115   1.360   .     D
C2103  H2119   0.950   .     S
C2104  C2106   1.360   .     S
C2104  N2116   1.360   .     D
C2104  H2120   0.950   .     S
C2105  C2107   1.500   .     D
C2106  C2108   1.500   .     D
C2107  C2110   1.390   .     S
C2107  C2111   1.390   .     S
C2108  C2109   1.390   .     S
C2108  C2112   1.390   .     S
C2109  C2111   1.390   .     D
C2109  H2121   0.950   .     S
C2110  C2112   1.390   .     D
C2110  H2122   0.950   .     S
C2111  H2123   0.950   .     S
C2112  H2124   0.950   .     S
N2113  N2115   1.360   .     S
N2113  Co2200  2.166   .     S
N2114  N2116   1.360   .     S
N2114  Co2197  2.166   .     S
N2116  Co2198  2.153   .     S
C2125  N2137   1.360   .     D
C2125  H2141   0.950   .     S
C2126  N2138   1.360   .     D
C2126  H2142   0.950   .     S
C2126  C2230   1.360   .     S
C2127  C2129   1.360   .     S
C2127  N2139   1.360   .     D
C2127  H2143   0.950   .     S
C2128  C2130   1.360   .     S
C2128  N2140   1.360   .     D
C2128  H2144   0.950   .     S
C2129  C2131   1.500   .     D
C2129  C2225   1.360   .     S
C2130  C2132   1.500   .     D
C2131  C2134   1.390   .     S
C2131  C2235   1.390   .     S
C2132  C2133   1.390   .     S
C2133  C2135   1.390   .     D
C2133  H2145   0.950   .     S
C2134  C2136   1.390   .     D
C2134  H2146   0.950   .     S
C2135  H2147   0.950   .     S
C2136  H2148   0.950   .     S
C2136  C2232   1.390   .     S
N2137  Co2198  2.166   .     S
N2138  Co2199  2.166   .     S
N2138  N2240   1.360   .     S
N2139  Co2197  2.153   .     S
N2139  N2237   1.360   .     S
N2140  Co2600  2.153   .     S
C2149  C2153   1.360   .     S
C2149  N2161   1.360   .     D
C2149  H2165   0.950   .     S
C2150  C2154   1.360   .     S
C2150  N2162   1.360   .     D
C2150  H2166   0.950   .     S
C2151  C2153   1.360   .     S
C2151  N2163   1.360   .     D
C2151  H2167   0.950   .     S
C2152  C2154   1.360   .     S
C2152  N2164   1.360   .     D
C2152  H2168   0.950   .     S
C2153  C2155   1.500   .     D
C2154  C2156   1.500   .     D
C2155  C2158   1.390   .     S
C2155  C2159   1.390   .     S
C2156  C2157   1.390   .     S
C2156  C2160   1.390   .     S
C2157  C2159   1.390   .     D
C2157  H2169   0.950   .     S
C2158  C2160   1.390   .     D
C2158  H2170   0.950   .     S
C2159  H2171   0.950   .     S
C2160  H2172   0.950   .     S
N2161  Co598   2.166   1_655 S
N2161  N2163   1.360   .     S
N2162  N2164   1.360   .     S
N2162  Co2199  2.166   .     S
N2163  Co597   2.153   1_655 S
N2164  Co2600  2.153   .     S
C2173  C2177   1.360   .     S
C2173  N2185   1.360   .     D
C2173  H2189   0.950   .     S
C2174  C2178   1.360   .     S
C2174  N2186   1.360   .     D
C2174  H2190   0.950   .     S
C2175  N2187   1.360   .     D
C2175  H2191   0.950   .     S
C2176  N2188   1.360   .     D
C2176  H2192   0.950   .     S
C2176  C2278   1.360   .     S
C2177  C2179   1.500   .     D
C2177  C2275   1.360   .     S
C2178  C2180   1.500   .     D
C2179  C2183   1.390   .     S
C2179  C2282   1.390   .     S
C2180  C2184   1.390   .     S
C2181  C2183   1.390   .     D
C2181  H2193   0.950   .     S
C2181  C2280   1.390   .     S
C2182  C2184   1.390   .     D
C2182  H2194   0.950   .     S
C2183  H2195   0.950   .     S
C2184  H2196   0.950   .     S
N2185  Co597   2.166   1_655 S
N2185  N2287   1.360   .     S
N2186  Co2200  2.166   .     S
N2187  Co598   2.153   1_655 S
N2188  N2286   1.360   .     S
Co2199 N2515   2.153   .     S
Co2199 N2588   2.153   .     S
C2201  C2205   1.360   .     S
C2201  N2213   1.360   .     D
C2201  H2217   0.950   .     S
C2202  C2206   1.360   .     S
C2202  N2214   1.360   .     D
C2202  H2218   0.950   .     S
C2203  C2205   1.360   .     S
C2203  N2215   1.360   .     D
C2203  H2219   0.950   .     S
C2204  C2206   1.360   .     S
C2204  N2216   1.360   .     D
C2204  H2220   0.950   .     S
C2205  C2207   1.500   .     D
C2206  C2208   1.500   .     D
C2207  C2210   1.390   .     S
C2207  C2211   1.390   .     S
C2208  C2209   1.390   .     S
C2208  C2212   1.390   .     S
C2209  C2211   1.390   .     D
C2209  H2221   0.950   .     S
C2210  C2212   1.390   .     D
C2210  H2222   0.950   .     S
C2211  H2223   0.950   .     S
C2212  H2224   0.950   .     S
N2213  N2215   1.360   .     S
N2213  Co2300  2.166   .     S
N2214  N2216   1.360   .     S
N2214  Co2297  2.166   .     S
N2216  Co2298  2.153   .     S
C2225  N2237   1.360   .     D
C2225  H2241   0.950   .     S
C2226  N2238   1.360   .     D
C2226  H2242   0.950   .     S
C2226  C2330   1.360   .     S
C2227  C2229   1.360   .     S
C2227  N2239   1.360   .     D
C2227  H2243   0.950   .     S
C2228  C2230   1.360   .     S
C2228  N2240   1.360   .     D
C2228  H2244   0.950   .     S
C2229  C2231   1.500   .     D
C2229  C2325   1.360   .     S
C2230  C2232   1.500   .     D
C2231  C2234   1.390   .     S
C2231  C2335   1.390   .     S
C2232  C2233   1.390   .     S
C2233  C2235   1.390   .     D
C2233  H2245   0.950   .     S
C2234  C2236   1.390   .     D
C2234  H2246   0.950   .     S
C2235  H2247   0.950   .     S
C2236  H2248   0.950   .     S
C2236  C2332   1.390   .     S
N2237  Co2298  2.166   .     S
N2238  Co2299  2.166   .     S
N2238  N2340   1.360   .     S
N2239  Co2297  2.153   .     S
N2239  N2337   1.360   .     S
N2240  Co2700  2.153   .     S
C2249  C2253   1.360   .     S
C2249  N2261   1.360   .     D
C2249  H2265   0.950   .     S
C2250  C2254   1.360   .     S
C2250  N2262   1.360   .     D
C2250  H2266   0.950   .     S
C2251  C2253   1.360   .     S
C2251  N2263   1.360   .     D
C2251  H2267   0.950   .     S
C2252  C2254   1.360   .     S
C2252  N2264   1.360   .     D
C2252  H2268   0.950   .     S
C2253  C2255   1.500   .     D
C2254  C2256   1.500   .     D
C2255  C2258   1.390   .     S
C2255  C2259   1.390   .     S
C2256  C2257   1.390   .     S
C2256  C2260   1.390   .     S
C2257  C2259   1.390   .     D
C2257  H2269   0.950   .     S
C2258  C2260   1.390   .     D
C2258  H2270   0.950   .     S
C2259  H2271   0.950   .     S
C2260  H2272   0.950   .     S
N2261  Co698   2.166   1_655 S
N2261  N2263   1.360   .     S
N2262  N2264   1.360   .     S
N2262  Co2299  2.166   .     S
N2263  Co697   2.153   1_655 S
N2264  Co2700  2.153   .     S
C2273  C2277   1.360   .     S
C2273  N2285   1.360   .     D
C2273  H2289   0.950   .     S
C2274  C2278   1.360   .     S
C2274  N2286   1.360   .     D
C2274  H2290   0.950   .     S
C2275  N2287   1.360   .     D
C2275  H2291   0.950   .     S
C2276  N2288   1.360   .     D
C2276  H2292   0.950   .     S
C2276  C2378   1.360   .     S
C2277  C2279   1.500   .     D
C2277  C2375   1.360   .     S
C2278  C2280   1.500   .     D
C2279  C2283   1.390   .     S
C2279  C2382   1.390   .     S
C2280  C2284   1.390   .     S
C2281  C2283   1.390   .     D
C2281  H2293   0.950   .     S
C2281  C2380   1.390   .     S
C2282  C2284   1.390   .     D
C2282  H2294   0.950   .     S
C2283  H2295   0.950   .     S
C2284  H2296   0.950   .     S
N2285  Co697   2.166   1_655 S
N2285  N2387   1.360   .     S
N2286  Co2300  2.166   .     S
N2287  Co698   2.153   1_655 S
N2288  N2386   1.360   .     S
Co2299 N2615   2.153   .     S
Co2299 N2688   2.153   .     S
C2301  C2305   1.360   .     S
C2301  N2313   1.360   .     D
C2301  H2317   0.950   .     S
C2302  C2306   1.360   .     S
C2302  N2314   1.360   .     D
C2302  H2318   0.950   .     S
C2303  C2305   1.360   .     S
C2303  N2315   1.360   .     D
C2303  H2319   0.950   .     S
C2304  C2306   1.360   .     S
C2304  N2316   1.360   .     D
C2304  H2320   0.950   .     S
C2305  C2307   1.500   .     D
C2306  C2308   1.500   .     D
C2307  C2310   1.390   .     S
C2307  C2311   1.390   .     S
C2308  C2309   1.390   .     S
C2308  C2312   1.390   .     S
C2309  C2311   1.390   .     D
C2309  H2321   0.950   .     S
C2310  C2312   1.390   .     D
C2310  H2322   0.950   .     S
C2311  H2323   0.950   .     S
C2312  H2324   0.950   .     S
N2313  N2315   1.360   .     S
N2313  Co2400  2.166   .     S
N2314  N2316   1.360   .     S
N2314  Co2397  2.166   .     S
N2316  Co2398  2.153   .     S
C2325  N2337   1.360   .     D
C2325  H2341   0.950   .     S
C2326  C2030   1.360   1_556 S
C2326  N2338   1.360   .     D
C2326  H2342   0.950   .     S
C2327  C2329   1.360   .     S
C2327  N2339   1.360   .     D
C2327  H2343   0.950   .     S
C2328  C2330   1.360   .     S
C2328  N2340   1.360   .     D
C2328  H2344   0.950   .     S
C2329  C2025   1.360   1_556 S
C2329  C2331   1.500   .     D
C2330  C2332   1.500   .     D
C2331  C2035   1.390   1_556 S
C2331  C2334   1.390   .     S
C2332  C2333   1.390   .     S
C2333  C2335   1.390   .     D
C2333  H2345   0.950   .     S
C2334  C2336   1.390   .     D
C2334  H2346   0.950   .     S
C2335  H2347   0.950   .     S
C2336  C2032   1.390   1_556 S
C2336  H2348   0.950   .     S
N2337  Co2398  2.166   .     S
N2338  N2040   1.360   1_556 S
N2338  Co2399  2.166   .     S
N2339  N2037   1.360   1_556 S
N2339  Co2397  2.153   .     S
N2340  Co2800  2.153   .     S
C2349  C2353   1.360   .     S
C2349  N2361   1.360   .     D
C2349  H2365   0.950   .     S
C2350  C2354   1.360   .     S
C2350  N2362   1.360   .     D
C2350  H2366   0.950   .     S
C2351  C2353   1.360   .     S
C2351  N2363   1.360   .     D
C2351  H2367   0.950   .     S
C2352  C2354   1.360   .     S
C2352  N2364   1.360   .     D
C2352  H2368   0.950   .     S
C2353  C2355   1.500   .     D
C2354  C2356   1.500   .     D
C2355  C2358   1.390   .     S
C2355  C2359   1.390   .     S
C2356  C2357   1.390   .     S
C2356  C2360   1.390   .     S
C2357  C2359   1.390   .     D
C2357  H2369   0.950   .     S
C2358  C2360   1.390   .     D
C2358  H2370   0.950   .     S
C2359  H2371   0.950   .     S
C2360  H2372   0.950   .     S
N2361  Co798   2.166   1_655 S
N2361  N2363   1.360   .     S
N2362  N2364   1.360   .     S
N2362  Co2399  2.166   .     S
N2363  Co797   2.153   1_655 S
N2364  Co2800  2.153   .     S
C2373  C2377   1.360   .     S
C2373  N2385   1.360   .     D
C2373  H2389   0.950   .     S
C2374  C2378   1.360   .     S
C2374  N2386   1.360   .     D
C2374  H2390   0.950   .     S
C2375  N2387   1.360   .     D
C2375  H2391   0.950   .     S
C2376  C2078   1.360   1_556 S
C2376  N2388   1.360   .     D
C2376  H2392   0.950   .     S
C2377  C2075   1.360   1_556 S
C2377  C2379   1.500   .     D
C2378  C2380   1.500   .     D
C2379  C2082   1.390   1_556 S
C2379  C2383   1.390   .     S
C2380  C2384   1.390   .     S
C2381  C2080   1.390   1_556 S
C2381  C2383   1.390   .     D
C2381  H2393   0.950   .     S
C2382  C2384   1.390   .     D
C2382  H2394   0.950   .     S
C2383  H2395   0.950   .     S
C2384  H2396   0.950   .     S
N2385  Co797   2.166   1_655 S
N2385  N2087   1.360   1_556 S
N2386  Co2400  2.166   .     S
N2387  Co798   2.153   1_655 S
N2388  N2086   1.360   1_556 S
Co2399 N2715   2.153   .     S
Co2399 N2788   2.153   .     S
C2401  C2405   1.360   .     S
C2401  N2413   1.360   .     D
C2401  H2417   0.950   .     S
C2402  C2406   1.360   .     S
C2402  N2414   1.360   .     D
C2402  H2418   0.950   .     S
C2403  C2405   1.360   .     S
C2403  N2415   1.360   .     D
C2403  H2419   0.950   .     S
C2404  C2406   1.360   .     S
C2404  N2416   1.360   .     D
C2404  H2420   0.950   .     S
C2405  C2407   1.500   .     D
C2406  C2408   1.500   .     D
C2407  C2410   1.390   .     S
C2407  C2411   1.390   .     S
C2408  C2409   1.390   .     S
C2408  C2412   1.390   .     S
C2409  C2411   1.390   .     D
C2409  H2421   0.950   .     S
C2410  C2412   1.390   .     D
C2410  H2422   0.950   .     S
C2411  H2423   0.950   .     S
C2412  H2424   0.950   .     S
N2413  N2415   1.360   .     S
N2413  Co2500  2.166   .     S
N2414  N2416   1.360   .     S
N2414  Co2497  2.166   .     S
N2416  Co2498  2.153   .     S
C2425  N2437   1.360   .     D
C2425  H2441   0.950   .     S
C2425  C2729   1.360   1_554 S
C2426  N2438   1.360   .     D
C2426  H2442   0.950   .     S
C2426  C2530   1.360   .     S
C2427  C2429   1.360   .     S
C2427  N2439   1.360   .     D
C2427  H2443   0.950   .     S
C2428  C2430   1.360   .     S
C2428  N2440   1.360   .     D
C2428  H2444   0.950   .     S
C2429  C2431   1.500   .     D
C2429  C2525   1.360   .     S
C2430  C2432   1.500   .     D
C2430  C2726   1.360   1_554 S
C2431  C2434   1.390   .     S
C2431  C2535   1.390   .     S
C2432  C2433   1.390   .     S
C2432  C2736   1.390   1_554 S
C2433  C2435   1.390   .     D
C2433  H2445   0.950   .     S
C2434  C2436   1.390   .     D
C2434  H2446   0.950   .     S
C2435  H2447   0.950   .     S
C2435  C2731   1.390   1_554 S
C2436  H2448   0.950   .     S
C2436  C2532   1.390   .     S
N2437  Co2498  2.166   .     S
N2437  N2739   1.360   1_554 S
N2438  Co2499  2.166   .     S
N2438  N2540   1.360   .     S
N2439  Co2497  2.153   .     S
N2439  N2537   1.360   .     S
N2440  N2738   1.360   1_554 S
N2440  Co2900  2.153   .     S
C2449  C2453   1.360   .     S
C2449  N2461   1.360   .     D
C2449  H2465   0.950   .     S
C2450  C2454   1.360   .     S
C2450  N2462   1.360   .     D
C2450  H2466   0.950   .     S
C2451  C2453   1.360   .     S
C2451  N2463   1.360   .     D
C2451  H2467   0.950   .     S
C2452  C2454   1.360   .     S
C2452  N2464   1.360   .     D
C2452  H2468   0.950   .     S
C2453  C2455   1.500   .     D
C2454  C2456   1.500   .     D
C2455  C2458   1.390   .     S
C2455  C2459   1.390   .     S
C2456  C2457   1.390   .     S
C2456  C2460   1.390   .     S
C2457  C2459   1.390   .     D
C2457  H2469   0.950   .     S
C2458  C2460   1.390   .     D
C2458  H2470   0.950   .     S
C2459  H2471   0.950   .     S
C2460  H2472   0.950   .     S
N2461  Co898   2.166   1_655 S
N2461  N2463   1.360   .     S
N2462  N2464   1.360   .     S
N2462  Co2499  2.166   .     S
N2463  Co897   2.153   1_655 S
N2464  Co2900  2.153   .     S
C2473  C2477   1.360   .     S
C2473  N2485   1.360   .     D
C2473  H2489   0.950   .     S
C2474  C2478   1.360   .     S
C2474  N2486   1.360   .     D
C2474  H2490   0.950   .     S
C2475  N2487   1.360   .     D
C2475  H2491   0.950   .     S
C2475  C2777   1.360   1_554 S
C2476  N2488   1.360   .     D
C2476  H2492   0.950   .     S
C2476  C2578   1.360   .     S
C2477  C2479   1.500   .     D
C2477  C2575   1.360   .     S
C2478  C2480   1.500   .     D
C2478  C2776   1.360   1_554 S
C2479  C2483   1.390   .     S
C2479  C2582   1.390   .     S
C2480  C2484   1.390   .     S
C2480  C2781   1.390   1_554 S
C2481  C2483   1.390   .     D
C2481  H2493   0.950   .     S
C2481  C2580   1.390   .     S
C2482  C2484   1.390   .     D
C2482  H2494   0.950   .     S
C2482  C2779   1.390   1_554 S
C2483  H2495   0.950   .     S
C2484  H2496   0.950   .     S
N2485  Co897   2.166   1_655 S
N2485  N2587   1.360   .     S
N2486  Co2500  2.166   .     S
N2486  N2788   1.360   1_554 S
N2487  Co898   2.153   1_655 S
N2487  N2785   1.360   1_554 S
N2488  N2586   1.360   .     S
Co2499 N2815   2.153   .     S
Co2499 N2888   2.153   .     S
C2501  C2505   1.360   .     S
C2501  N2513   1.360   .     D
C2501  H2517   0.950   .     S
C2502  C2506   1.360   .     S
C2502  N2514   1.360   .     D
C2502  H2518   0.950   .     S
C2503  C2505   1.360   .     S
C2503  N2515   1.360   .     D
C2503  H2519   0.950   .     S
C2504  C2506   1.360   .     S
C2504  N2516   1.360   .     D
C2504  H2520   0.950   .     S
C2505  C2507   1.500   .     D
C2506  C2508   1.500   .     D
C2507  C2510   1.390   .     S
C2507  C2511   1.390   .     S
C2508  C2509   1.390   .     S
C2508  C2512   1.390   .     S
C2509  C2511   1.390   .     D
C2509  H2521   0.950   .     S
C2510  C2512   1.390   .     D
C2510  H2522   0.950   .     S
C2511  H2523   0.950   .     S
C2512  H2524   0.950   .     S
N2513  N2515   1.360   .     S
N2513  Co2600  2.166   .     S
N2514  N2516   1.360   .     S
N2514  Co2597  2.166   .     S
N2516  Co2598  2.153   .     S
C2525  N2537   1.360   .     D
C2525  H2541   0.950   .     S
C2526  N2538   1.360   .     D
C2526  H2542   0.950   .     S
C2526  C2630   1.360   .     S
C2527  C2529   1.360   .     S
C2527  N2539   1.360   .     D
C2527  H2543   0.950   .     S
C2528  C2530   1.360   .     S
C2528  N2540   1.360   .     D
C2528  H2544   0.950   .     S
C2529  C2531   1.500   .     D
C2529  C2625   1.360   .     S
C2530  C2532   1.500   .     D
C2531  C2534   1.390   .     S
C2531  C2635   1.390   .     S
C2532  C2533   1.390   .     S
C2533  C2535   1.390   .     D
C2533  H2545   0.950   .     S
C2534  C2536   1.390   .     D
C2534  H2546   0.950   .     S
C2535  H2547   0.950   .     S
C2536  H2548   0.950   .     S
C2536  C2632   1.390   .     S
N2537  Co2598  2.166   .     S
N2538  Co2599  2.166   .     S
N2538  N2640   1.360   .     S
N2539  Co2597  2.153   .     S
N2539  N2637   1.360   .     S
N2540  Co3000  2.153   .     S
C2549  C2553   1.360   .     S
C2549  N2561   1.360   .     D
C2549  H2565   0.950   .     S
C2550  C2554   1.360   .     S
C2550  N2562   1.360   .     D
C2550  H2566   0.950   .     S
C2551  C2553   1.360   .     S
C2551  N2563   1.360   .     D
C2551  H2567   0.950   .     S
C2552  C2554   1.360   .     S
C2552  N2564   1.360   .     D
C2552  H2568   0.950   .     S
C2553  C2555   1.500   .     D
C2554  C2556   1.500   .     D
C2555  C2558   1.390   .     S
C2555  C2559   1.390   .     S
C2556  C2557   1.390   .     S
C2556  C2560   1.390   .     S
C2557  C2559   1.390   .     D
C2557  H2569   0.950   .     S
C2558  C2560   1.390   .     D
C2558  H2570   0.950   .     S
C2559  H2571   0.950   .     S
C2560  H2572   0.950   .     S
N2561  Co998   2.166   1_655 S
N2561  N2563   1.360   .     S
N2562  N2564   1.360   .     S
N2562  Co2599  2.166   .     S
N2563  Co997   2.153   1_655 S
N2564  Co3000  2.153   .     S
C2573  C2577   1.360   .     S
C2573  N2585   1.360   .     D
C2573  H2589   0.950   .     S
C2574  C2578   1.360   .     S
C2574  N2586   1.360   .     D
C2574  H2590   0.950   .     S
C2575  N2587   1.360   .     D
C2575  H2591   0.950   .     S
C2576  N2588   1.360   .     D
C2576  H2592   0.950   .     S
C2576  C2678   1.360   .     S
C2577  C2579   1.500   .     D
C2577  C2675   1.360   .     S
C2578  C2580   1.500   .     D
C2579  C2583   1.390   .     S
C2579  C2682   1.390   .     S
C2580  C2584   1.390   .     S
C2581  C2583   1.390   .     D
C2581  H2593   0.950   .     S
C2581  C2680   1.390   .     S
C2582  C2584   1.390   .     D
C2582  H2594   0.950   .     S
C2583  H2595   0.950   .     S
C2584  H2596   0.950   .     S
N2585  Co997   2.166   1_655 S
N2585  N2687   1.360   .     S
N2586  Co2600  2.166   .     S
N2587  Co998   2.153   1_655 S
N2588  N2686   1.360   .     S
Co2599 N2915   2.153   .     S
Co2599 N2988   2.153   .     S
C2601  C2605   1.360   .     S
C2601  N2613   1.360   .     D
C2601  H2617   0.950   .     S
C2602  C2606   1.360   .     S
C2602  N2614   1.360   .     D
C2602  H2618   0.950   .     S
C2603  C2605   1.360   .     S
C2603  N2615   1.360   .     D
C2603  H2619   0.950   .     S
C2604  C2606   1.360   .     S
C2604  N2616   1.360   .     D
C2604  H2620   0.950   .     S
C2605  C2607   1.500   .     D
C2606  C2608   1.500   .     D
C2607  C2610   1.390   .     S
C2607  C2611   1.390   .     S
C2608  C2609   1.390   .     S
C2608  C2612   1.390   .     S
C2609  C2611   1.390   .     D
C2609  H2621   0.950   .     S
C2610  C2612   1.390   .     D
C2610  H2622   0.950   .     S
C2611  H2623   0.950   .     S
C2612  H2624   0.950   .     S
N2613  N2615   1.360   .     S
N2613  Co2700  2.166   .     S
N2614  N2616   1.360   .     S
N2614  Co2697  2.166   .     S
N2616  Co2698  2.153   .     S
C2625  N2637   1.360   .     D
C2625  H2641   0.950   .     S
C2626  N2638   1.360   .     D
C2626  H2642   0.950   .     S
C2626  C2730   1.360   .     S
C2627  C2629   1.360   .     S
C2627  N2639   1.360   .     D
C2627  H2643   0.950   .     S
C2628  C2630   1.360   .     S
C2628  N2640   1.360   .     D
C2628  H2644   0.950   .     S
C2629  C2631   1.500   .     D
C2629  C2725   1.360   .     S
C2630  C2632   1.500   .     D
C2631  C2634   1.390   .     S
C2631  C2735   1.390   .     S
C2632  C2633   1.390   .     S
C2633  C2635   1.390   .     D
C2633  H2645   0.950   .     S
C2634  C2636   1.390   .     D
C2634  H2646   0.950   .     S
C2635  H2647   0.950   .     S
C2636  H2648   0.950   .     S
C2636  C2732   1.390   .     S
N2637  Co2698  2.166   .     S
N2638  Co2699  2.166   .     S
N2638  N2740   1.360   .     S
N2639  Co2697  2.153   .     S
N2639  N2737   1.360   .     S
N2640  Co3100  2.153   .     S
C2649  C2653   1.360   .     S
C2649  N2661   1.360   .     D
C2649  H2665   0.950   .     S
C2650  C2654   1.360   .     S
C2650  N2662   1.360   .     D
C2650  H2666   0.950   .     S
C2651  C2653   1.360   .     S
C2651  N2663   1.360   .     D
C2651  H2667   0.950   .     S
C2652  C2654   1.360   .     S
C2652  N2664   1.360   .     D
C2652  H2668   0.950   .     S
C2653  C2655   1.500   .     D
C2654  C2656   1.500   .     D
C2655  C2658   1.390   .     S
C2655  C2659   1.390   .     S
C2656  C2657   1.390   .     S
C2656  C2660   1.390   .     S
C2657  C2659   1.390   .     D
C2657  H2669   0.950   .     S
C2658  C2660   1.390   .     D
C2658  H2670   0.950   .     S
C2659  H2671   0.950   .     S
C2660  H2672   0.950   .     S
N2661  Co1098  2.166   1_655 S
N2661  N2663   1.360   .     S
N2662  N2664   1.360   .     S
N2662  Co2699  2.166   .     S
N2663  Co1097  2.153   1_655 S
N2664  Co3100  2.153   .     S
C2673  C2677   1.360   .     S
C2673  N2685   1.360   .     D
C2673  H2689   0.950   .     S
C2674  C2678   1.360   .     S
C2674  N2686   1.360   .     D
C2674  H2690   0.950   .     S
C2675  N2687   1.360   .     D
C2675  H2691   0.950   .     S
C2676  N2688   1.360   .     D
C2676  H2692   0.950   .     S
C2676  C2778   1.360   .     S
C2677  C2679   1.500   .     D
C2677  C2775   1.360   .     S
C2678  C2680   1.500   .     D
C2679  C2683   1.390   .     S
C2679  C2782   1.390   .     S
C2680  C2684   1.390   .     S
C2681  C2683   1.390   .     D
C2681  H2693   0.950   .     S
C2681  C2780   1.390   .     S
C2682  C2684   1.390   .     D
C2682  H2694   0.950   .     S
C2683  H2695   0.950   .     S
C2684  H2696   0.950   .     S
N2685  Co1097  2.166   1_655 S
N2685  N2787   1.360   .     S
N2686  Co2700  2.166   .     S
N2687  Co1098  2.153   1_655 S
N2688  N2786   1.360   .     S
Co2699 N3015   2.153   .     S
Co2699 N3088   2.153   .     S
C2701  C2705   1.360   .     S
C2701  N2713   1.360   .     D
C2701  H2717   0.950   .     S
C2702  C2706   1.360   .     S
C2702  N2714   1.360   .     D
C2702  H2718   0.950   .     S
C2703  C2705   1.360   .     S
C2703  N2715   1.360   .     D
C2703  H2719   0.950   .     S
C2704  C2706   1.360   .     S
C2704  N2716   1.360   .     D
C2704  H2720   0.950   .     S
C2705  C2707   1.500   .     D
C2706  C2708   1.500   .     D
C2707  C2710   1.390   .     S
C2707  C2711   1.390   .     S
C2708  C2709   1.390   .     S
C2708  C2712   1.390   .     S
C2709  C2711   1.390   .     D
C2709  H2721   0.950   .     S
C2710  C2712   1.390   .     D
C2710  H2722   0.950   .     S
C2711  H2723   0.950   .     S
C2712  H2724   0.950   .     S
N2713  N2715   1.360   .     S
N2713  Co2800  2.166   .     S
N2714  N2716   1.360   .     S
N2714  Co2797  2.166   .     S
N2716  Co2798  2.153   .     S
C2725  N2737   1.360   .     D
C2725  H2741   0.950   .     S
C2726  C2430   1.360   1_556 S
C2726  N2738   1.360   .     D
C2726  H2742   0.950   .     S
C2727  C2729   1.360   .     S
C2727  N2739   1.360   .     D
C2727  H2743   0.950   .     S
C2728  C2730   1.360   .     S
C2728  N2740   1.360   .     D
C2728  H2744   0.950   .     S
C2729  C2425   1.360   1_556 S
C2729  C2731   1.500   .     D
C2730  C2732   1.500   .     D
C2731  C2435   1.390   1_556 S
C2731  C2734   1.390   .     S
C2732  C2733   1.390   .     S
C2733  C2735   1.390   .     D
C2733  H2745   0.950   .     S
C2734  C2736   1.390   .     D
C2734  H2746   0.950   .     S
C2735  H2747   0.950   .     S
C2736  C2432   1.390   1_556 S
C2736  H2748   0.950   .     S
N2737  Co2798  2.166   .     S
N2738  N2440   1.360   1_556 S
N2738  Co2799  2.166   .     S
N2739  N2437   1.360   1_556 S
N2739  Co2797  2.153   .     S
N2740  Co3200  2.153   .     S
C2749  C2753   1.360   .     S
C2749  N2761   1.360   .     D
C2749  H2765   0.950   .     S
C2750  C2754   1.360   .     S
C2750  N2762   1.360   .     D
C2750  H2766   0.950   .     S
C2751  C2753   1.360   .     S
C2751  N2763   1.360   .     D
C2751  H2767   0.950   .     S
C2752  C2754   1.360   .     S
C2752  N2764   1.360   .     D
C2752  H2768   0.950   .     S
C2753  C2755   1.500   .     D
C2754  C2756   1.500   .     D
C2755  C2758   1.390   .     S
C2755  C2759   1.390   .     S
C2756  C2757   1.390   .     S
C2756  C2760   1.390   .     S
C2757  C2759   1.390   .     D
C2757  H2769   0.950   .     S
C2758  C2760   1.390   .     D
C2758  H2770   0.950   .     S
C2759  H2771   0.950   .     S
C2760  H2772   0.950   .     S
N2761  Co1198  2.166   1_655 S
N2761  N2763   1.360   .     S
N2762  N2764   1.360   .     S
N2762  Co2799  2.166   .     S
N2763  Co1197  2.153   1_655 S
N2764  Co3200  2.153   .     S
C2773  C2777   1.360   .     S
C2773  N2785   1.360   .     D
C2773  H2789   0.950   .     S
C2774  C2778   1.360   .     S
C2774  N2786   1.360   .     D
C2774  H2790   0.950   .     S
C2775  N2787   1.360   .     D
C2775  H2791   0.950   .     S
C2776  C2478   1.360   1_556 S
C2776  N2788   1.360   .     D
C2776  H2792   0.950   .     S
C2777  C2475   1.360   1_556 S
C2777  C2779   1.500   .     D
C2778  C2780   1.500   .     D
C2779  C2482   1.390   1_556 S
C2779  C2783   1.390   .     S
C2780  C2784   1.390   .     S
C2781  C2480   1.390   1_556 S
C2781  C2783   1.390   .     D
C2781  H2793   0.950   .     S
C2782  C2784   1.390   .     D
C2782  H2794   0.950   .     S
C2783  H2795   0.950   .     S
C2784  H2796   0.950   .     S
N2785  Co1197  2.166   1_655 S
N2785  N2487   1.360   1_556 S
N2786  Co2800  2.166   .     S
N2787  Co1198  2.153   1_655 S
N2788  N2486   1.360   1_556 S
Co2799 N3115   2.153   .     S
Co2799 N3188   2.153   .     S
C2801  C2805   1.360   .     S
C2801  N2813   1.360   .     D
C2801  H2817   0.950   .     S
C2802  C2806   1.360   .     S
C2802  N2814   1.360   .     D
C2802  H2818   0.950   .     S
C2803  C2805   1.360   .     S
C2803  N2815   1.360   .     D
C2803  H2819   0.950   .     S
C2804  C2806   1.360   .     S
C2804  N2816   1.360   .     D
C2804  H2820   0.950   .     S
C2805  C2807   1.500   .     D
C2806  C2808   1.500   .     D
C2807  C2810   1.390   .     S
C2807  C2811   1.390   .     S
C2808  C2809   1.390   .     S
C2808  C2812   1.390   .     S
C2809  C2811   1.390   .     D
C2809  H2821   0.950   .     S
C2810  C2812   1.390   .     D
C2810  H2822   0.950   .     S
C2811  H2823   0.950   .     S
C2812  H2824   0.950   .     S
N2813  N2815   1.360   .     S
N2813  Co2900  2.166   .     S
N2814  N2816   1.360   .     S
N2814  Co2897  2.166   .     S
N2816  Co2898  2.153   .     S
C2825  N2837   1.360   .     D
C2825  H2841   0.950   .     S
C2825  C3129   1.360   1_554 S
C2826  N2838   1.360   .     D
C2826  H2842   0.950   .     S
C2826  C2930   1.360   .     S
C2827  C2829   1.360   .     S
C2827  N2839   1.360   .     D
C2827  H2843   0.950   .     S
C2828  C2830   1.360   .     S
C2828  N2840   1.360   .     D
C2828  H2844   0.950   .     S
C2829  C2831   1.500   .     D
C2829  C2925   1.360   .     S
C2830  C2832   1.500   .     D
C2830  C3126   1.360   1_554 S
C2831  C2834   1.390   .     S
C2831  C2935   1.390   .     S
C2832  C2833   1.390   .     S
C2832  C3136   1.390   1_554 S
C2833  C2835   1.390   .     D
C2833  H2845   0.950   .     S
C2834  C2836   1.390   .     D
C2834  H2846   0.950   .     S
C2835  H2847   0.950   .     S
C2835  C3131   1.390   1_554 S
C2836  H2848   0.950   .     S
C2836  C2932   1.390   .     S
N2837  Co2898  2.166   .     S
N2837  N3139   1.360   1_554 S
N2838  Co2899  2.166   .     S
N2838  N2940   1.360   .     S
N2839  Co2897  2.153   .     S
N2839  N2937   1.360   .     S
N2840  Co1700  2.153   1_565 S
N2840  N3138   1.360   1_554 S
C2849  C2853   1.360   .     S
C2849  N2861   1.360   .     D
C2849  H2865   0.950   .     S
C2850  C2854   1.360   .     S
C2850  N2862   1.360   .     D
C2850  H2866   0.950   .     S
C2851  C2853   1.360   .     S
C2851  N2863   1.360   .     D
C2851  H2867   0.950   .     S
C2852  C2854   1.360   .     S
C2852  N2864   1.360   .     D
C2852  H2868   0.950   .     S
C2853  C2855   1.500   .     D
C2854  C2856   1.500   .     D
C2855  C2858   1.390   .     S
C2855  C2859   1.390   .     S
C2856  C2857   1.390   .     S
C2856  C2860   1.390   .     S
C2857  C2859   1.390   .     D
C2857  H2869   0.950   .     S
C2858  C2860   1.390   .     D
C2858  H2870   0.950   .     S
C2859  H2871   0.950   .     S
C2860  H2872   0.950   .     S
N2861  Co1298  2.166   1_655 S
N2861  N2863   1.360   .     S
N2862  N2864   1.360   .     S
N2862  Co2899  2.166   .     S
N2863  Co1297  2.153   1_655 S
N2864  Co1700  2.153   1_565 S
C2873  C2877   1.360   .     S
C2873  N2885   1.360   .     D
C2873  H2889   0.950   .     S
C2874  C2878   1.360   .     S
C2874  N2886   1.360   .     D
C2874  H2890   0.950   .     S
C2875  N2887   1.360   .     D
C2875  H2891   0.950   .     S
C2875  C3177   1.360   1_554 S
C2876  N2888   1.360   .     D
C2876  H2892   0.950   .     S
C2876  C2978   1.360   .     S
C2877  C2879   1.500   .     D
C2877  C2975   1.360   .     S
C2878  C2880   1.500   .     D
C2878  C3176   1.360   1_554 S
C2879  C2883   1.390   .     S
C2879  C2982   1.390   .     S
C2880  C2884   1.390   .     S
C2880  C3181   1.390   1_554 S
C2881  C2883   1.390   .     D
C2881  H2893   0.950   .     S
C2881  C2980   1.390   .     S
C2882  C2884   1.390   .     D
C2882  H2894   0.950   .     S
C2882  C3179   1.390   1_554 S
C2883  H2895   0.950   .     S
C2884  H2896   0.950   .     S
N2885  Co1297  2.166   1_655 S
N2885  N2987   1.360   .     S
N2886  Co2900  2.166   .     S
N2886  N3188   1.360   1_554 S
N2887  Co1298  2.153   1_655 S
N2887  N3185   1.360   1_554 S
N2888  N2986   1.360   .     S
Co2899 N1615   2.153   1_565 S
Co2899 N1688   2.153   1_565 S
C2901  C2905   1.360   .     S
C2901  N2913   1.360   .     D
C2901  H2917   0.950   .     S
C2902  C2906   1.360   .     S
C2902  N2914   1.360   .     D
C2902  H2918   0.950   .     S
C2903  C2905   1.360   .     S
C2903  N2915   1.360   .     D
C2903  H2919   0.950   .     S
C2904  C2906   1.360   .     S
C2904  N2916   1.360   .     D
C2904  H2920   0.950   .     S
C2905  C2907   1.500   .     D
C2906  C2908   1.500   .     D
C2907  C2910   1.390   .     S
C2907  C2911   1.390   .     S
C2908  C2909   1.390   .     S
C2908  C2912   1.390   .     S
C2909  C2911   1.390   .     D
C2909  H2921   0.950   .     S
C2910  C2912   1.390   .     D
C2910  H2922   0.950   .     S
C2911  H2923   0.950   .     S
C2912  H2924   0.950   .     S
N2913  N2915   1.360   .     S
N2913  Co3000  2.166   .     S
N2914  N2916   1.360   .     S
N2914  Co2997  2.166   .     S
N2916  Co2998  2.153   .     S
C2925  N2937   1.360   .     D
C2925  H2941   0.950   .     S
C2926  N2938   1.360   .     D
C2926  H2942   0.950   .     S
C2926  C3030   1.360   .     S
C2927  C2929   1.360   .     S
C2927  N2939   1.360   .     D
C2927  H2943   0.950   .     S
C2928  C2930   1.360   .     S
C2928  N2940   1.360   .     D
C2928  H2944   0.950   .     S
C2929  C2931   1.500   .     D
C2929  C3025   1.360   .     S
C2930  C2932   1.500   .     D
C2931  C2934   1.390   .     S
C2931  C3035   1.390   .     S
C2932  C2933   1.390   .     S
C2933  C2935   1.390   .     D
C2933  H2945   0.950   .     S
C2934  C2936   1.390   .     D
C2934  H2946   0.950   .     S
C2935  H2947   0.950   .     S
C2936  H2948   0.950   .     S
C2936  C3032   1.390   .     S
N2937  Co2998  2.166   .     S
N2938  Co2999  2.166   .     S
N2938  N3040   1.360   .     S
N2939  Co2997  2.153   .     S
N2939  N3037   1.360   .     S
N2940  Co1800  2.153   1_565 S
C2949  C2953   1.360   .     S
C2949  N2961   1.360   .     D
C2949  H2965   0.950   .     S
C2950  C2954   1.360   .     S
C2950  N2962   1.360   .     D
C2950  H2966   0.950   .     S
C2951  C2953   1.360   .     S
C2951  N2963   1.360   .     D
C2951  H2967   0.950   .     S
C2952  C2954   1.360   .     S
C2952  N2964   1.360   .     D
C2952  H2968   0.950   .     S
C2953  C2955   1.500   .     D
C2954  C2956   1.500   .     D
C2955  C2958   1.390   .     S
C2955  C2959   1.390   .     S
C2956  C2957   1.390   .     S
C2956  C2960   1.390   .     S
C2957  C2959   1.390   .     D
C2957  H2969   0.950   .     S
C2958  C2960   1.390   .     D
C2958  H2970   0.950   .     S
C2959  H2971   0.950   .     S
C2960  H2972   0.950   .     S
N2961  Co1398  2.166   1_655 S
N2961  N2963   1.360   .     S
N2962  N2964   1.360   .     S
N2962  Co2999  2.166   .     S
N2963  Co1397  2.153   1_655 S
N2964  Co1800  2.153   1_565 S
C2973  C2977   1.360   .     S
C2973  N2985   1.360   .     D
C2973  H2989   0.950   .     S
C2974  C2978   1.360   .     S
C2974  N2986   1.360   .     D
C2974  H2990   0.950   .     S
C2975  N2987   1.360   .     D
C2975  H2991   0.950   .     S
C2976  N2988   1.360   .     D
C2976  H2992   0.950   .     S
C2976  C3078   1.360   .     S
C2977  C2979   1.500   .     D
C2977  C3075   1.360   .     S
C2978  C2980   1.500   .     D
C2979  C2983   1.390   .     S
C2979  C3082   1.390   .     S
C2980  C2984   1.390   .     S
C2981  C2983   1.390   .     D
C2981  H2993   0.950   .     S
C2981  C3080   1.390   .     S
C2982  C2984   1.390   .     D
C2982  H2994   0.950   .     S
C2983  H2995   0.950   .     S
C2984  H2996   0.950   .     S
N2985  Co1397  2.166   1_655 S
N2985  N3087   1.360   .     S
N2986  Co3000  2.166   .     S
N2987  Co1398  2.153   1_655 S
N2988  N3086   1.360   .     S
Co2999 N1715   2.153   1_565 S
Co2999 N1788   2.153   1_565 S
C3001  C3005   1.360   .     S
C3001  N3013   1.360   .     D
C3001  H3017   0.950   .     S
C3002  C3006   1.360   .     S
C3002  N3014   1.360   .     D
C3002  H3018   0.950   .     S
C3003  C3005   1.360   .     S
C3003  N3015   1.360   .     D
C3003  H3019   0.950   .     S
C3004  C3006   1.360   .     S
C3004  N3016   1.360   .     D
C3004  H3020   0.950   .     S
C3005  C3007   1.500   .     D
C3006  C3008   1.500   .     D
C3007  C3010   1.390   .     S
C3007  C3011   1.390   .     S
C3008  C3009   1.390   .     S
C3008  C3012   1.390   .     S
C3009  C3011   1.390   .     D
C3009  H3021   0.950   .     S
C3010  C3012   1.390   .     D
C3010  H3022   0.950   .     S
C3011  H3023   0.950   .     S
C3012  H3024   0.950   .     S
N3013  N3015   1.360   .     S
N3013  Co3100  2.166   .     S
N3014  N3016   1.360   .     S
N3014  Co3097  2.166   .     S
N3016  Co3098  2.153   .     S
C3025  N3037   1.360   .     D
C3025  H3041   0.950   .     S
C3026  N3038   1.360   .     D
C3026  H3042   0.950   .     S
C3026  C3130   1.360   .     S
C3027  C3029   1.360   .     S
C3027  N3039   1.360   .     D
C3027  H3043   0.950   .     S
C3028  C3030   1.360   .     S
C3028  N3040   1.360   .     D
C3028  H3044   0.950   .     S
C3029  C3031   1.500   .     D
C3029  C3125   1.360   .     S
C3030  C3032   1.500   .     D
C3031  C3034   1.390   .     S
C3031  C3135   1.390   .     S
C3032  C3033   1.390   .     S
C3033  C3035   1.390   .     D
C3033  H3045   0.950   .     S
C3034  C3036   1.390   .     D
C3034  H3046   0.950   .     S
C3035  H3047   0.950   .     S
C3036  H3048   0.950   .     S
C3036  C3132   1.390   .     S
N3037  Co3098  2.166   .     S
N3038  Co3099  2.166   .     S
N3038  N3140   1.360   .     S
N3039  Co3097  2.153   .     S
N3039  N3137   1.360   .     S
N3040  Co1900  2.153   1_565 S
C3049  C3053   1.360   .     S
C3049  N3061   1.360   .     D
C3049  H3065   0.950   .     S
C3050  C3054   1.360   .     S
C3050  N3062   1.360   .     D
C3050  H3066   0.950   .     S
C3051  C3053   1.360   .     S
C3051  N3063   1.360   .     D
C3051  H3067   0.950   .     S
C3052  C3054   1.360   .     S
C3052  N3064   1.360   .     D
C3052  H3068   0.950   .     S
C3053  C3055   1.500   .     D
C3054  C3056   1.500   .     D
C3055  C3058   1.390   .     S
C3055  C3059   1.390   .     S
C3056  C3057   1.390   .     S
C3056  C3060   1.390   .     S
C3057  C3059   1.390   .     D
C3057  H3069   0.950   .     S
C3058  C3060   1.390   .     D
C3058  H3070   0.950   .     S
C3059  H3071   0.950   .     S
C3060  H3072   0.950   .     S
N3061  Co1498  2.166   1_655 S
N3061  N3063   1.360   .     S
N3062  N3064   1.360   .     S
N3062  Co3099  2.166   .     S
N3063  Co1497  2.153   1_655 S
N3064  Co1900  2.153   1_565 S
C3073  C3077   1.360   .     S
C3073  N3085   1.360   .     D
C3073  H3089   0.950   .     S
C3074  C3078   1.360   .     S
C3074  N3086   1.360   .     D
C3074  H3090   0.950   .     S
C3075  N3087   1.360   .     D
C3075  H3091   0.950   .     S
C3076  N3088   1.360   .     D
C3076  H3092   0.950   .     S
C3076  C3178   1.360   .     S
C3077  C3079   1.500   .     D
C3077  C3175   1.360   .     S
C3078  C3080   1.500   .     D
C3079  C3083   1.390   .     S
C3079  C3182   1.390   .     S
C3080  C3084   1.390   .     S
C3081  C3083   1.390   .     D
C3081  H3093   0.950   .     S
C3081  C3180   1.390   .     S
C3082  C3084   1.390   .     D
C3082  H3094   0.950   .     S
C3083  H3095   0.950   .     S
C3084  H3096   0.950   .     S
N3085  Co1497  2.166   1_655 S
N3085  N3187   1.360   .     S
N3086  Co3100  2.166   .     S
N3087  Co1498  2.153   1_655 S
N3088  N3186   1.360   .     S
Co3099 N1815   2.153   1_565 S
Co3099 N1888   2.153   1_565 S
C3101  C3105   1.360   .     S
C3101  N3113   1.360   .     D
C3101  H3117   0.950   .     S
C3102  C3106   1.360   .     S
C3102  N3114   1.360   .     D
C3102  H3118   0.950   .     S
C3103  C3105   1.360   .     S
C3103  N3115   1.360   .     D
C3103  H3119   0.950   .     S
C3104  C3106   1.360   .     S
C3104  N3116   1.360   .     D
C3104  H3120   0.950   .     S
C3105  C3107   1.500   .     D
C3106  C3108   1.500   .     D
C3107  C3110   1.390   .     S
C3107  C3111   1.390   .     S
C3108  C3109   1.390   .     S
C3108  C3112   1.390   .     S
C3109  C3111   1.390   .     D
C3109  H3121   0.950   .     S
C3110  C3112   1.390   .     D
C3110  H3122   0.950   .     S
C3111  H3123   0.950   .     S
C3112  H3124   0.950   .     S
N3113  N3115   1.360   .     S
N3113  Co3200  2.166   .     S
N3114  N3116   1.360   .     S
N3114  Co3197  2.166   .     S
N3116  Co3198  2.153   .     S
C3125  N3137   1.360   .     D
C3125  H3141   0.950   .     S
C3126  C2830   1.360   1_556 S
C3126  N3138   1.360   .     D
C3126  H3142   0.950   .     S
C3127  C3129   1.360   .     S
C3127  N3139   1.360   .     D
C3127  H3143   0.950   .     S
C3128  C3130   1.360   .     S
C3128  N3140   1.360   .     D
C3128  H3144   0.950   .     S
C3129  C2825   1.360   1_556 S
C3129  C3131   1.500   .     D
C3130  C3132   1.500   .     D
C3131  C2835   1.390   1_556 S
C3131  C3134   1.390   .     S
C3132  C3133   1.390   .     S
C3133  C3135   1.390   .     D
C3133  H3145   0.950   .     S
C3134  C3136   1.390   .     D
C3134  H3146   0.950   .     S
C3135  H3147   0.950   .     S
C3136  C2832   1.390   1_556 S
C3136  H3148   0.950   .     S
N3137  Co3198  2.166   .     S
N3138  N2840   1.360   1_556 S
N3138  Co3199  2.166   .     S
N3139  N2837   1.360   1_556 S
N3139  Co3197  2.153   .     S
N3140  Co2000  2.153   1_565 S
C3149  C3153   1.360   .     S
C3149  N3161   1.360   .     D
C3149  H3165   0.950   .     S
C3150  C3154   1.360   .     S
C3150  N3162   1.360   .     D
C3150  H3166   0.950   .     S
C3151  C3153   1.360   .     S
C3151  N3163   1.360   .     D
C3151  H3167   0.950   .     S
C3152  C3154   1.360   .     S
C3152  N3164   1.360   .     D
C3152  H3168   0.950   .     S
C3153  C3155   1.500   .     D
C3154  C3156   1.500   .     D
C3155  C3158   1.390   .     S
C3155  C3159   1.390   .     S
C3156  C3157   1.390   .     S
C3156  C3160   1.390   .     S
C3157  C3159   1.390   .     D
C3157  H3169   0.950   .     S
C3158  C3160   1.390   .     D
C3158  H3170   0.950   .     S
C3159  H3171   0.950   .     S
C3160  H3172   0.950   .     S
N3161  Co1598  2.166   1_655 S
N3161  N3163   1.360   .     S
N3162  N3164   1.360   .     S
N3162  Co3199  2.166   .     S
N3163  Co1597  2.153   1_655 S
N3164  Co2000  2.153   1_565 S
C3173  C3177   1.360   .     S
C3173  N3185   1.360   .     D
C3173  H3189   0.950   .     S
C3174  C3178   1.360   .     S
C3174  N3186   1.360   .     D
C3174  H3190   0.950   .     S
C3175  N3187   1.360   .     D
C3175  H3191   0.950   .     S
C3176  C2878   1.360   1_556 S
C3176  N3188   1.360   .     D
C3176  H3192   0.950   .     S
C3177  C2875   1.360   1_556 S
C3177  C3179   1.500   .     D
C3178  C3180   1.500   .     D
C3179  C2882   1.390   1_556 S
C3179  C3183   1.390   .     S
C3180  C3184   1.390   .     S
C3181  C2880   1.390   1_556 S
C3181  C3183   1.390   .     D
C3181  H3193   0.950   .     S
C3182  C3184   1.390   .     D
C3182  H3194   0.950   .     S
C3183  H3195   0.950   .     S
C3184  H3196   0.950   .     S
N3185  Co1597  2.166   1_655 S
N3185  N2887   1.360   1_556 S
N3186  Co3200  2.166   .     S
N3187  Co1598  2.153   1_655 S
N3188  N2886   1.360   1_556 S
Co3199 N1915   2.153   1_565 S
Co3199 N1988   2.153   1_565 S
